* NGSPICE file created from cbx_1__0_.ext - technology: sky130A

* Black-box entry subcircuit for sky130_fd_sc_hd__fill_1 abstract view
.subckt sky130_fd_sc_hd__fill_1 VGND VNB VPB VPWR
.ends

* Black-box entry subcircuit for sky130_fd_sc_hd__fill_2 abstract view
.subckt sky130_fd_sc_hd__fill_2 VGND VNB VPB VPWR
.ends

* Black-box entry subcircuit for sky130_fd_sc_hd__diode_2 abstract view
.subckt sky130_fd_sc_hd__diode_2 DIODE VGND VNB VPB VPWR
.ends

* Black-box entry subcircuit for sky130_fd_sc_hd__dfxtp_1 abstract view
.subckt sky130_fd_sc_hd__dfxtp_1 CLK D VGND VNB VPB VPWR Q
.ends

* Black-box entry subcircuit for sky130_fd_sc_hd__mux2_1 abstract view
.subckt sky130_fd_sc_hd__mux2_1 A0 A1 S VGND VNB VPB VPWR X
.ends

* Black-box entry subcircuit for sky130_fd_sc_hd__clkbuf_1 abstract view
.subckt sky130_fd_sc_hd__clkbuf_1 A VGND VNB VPB VPWR X
.ends

* Black-box entry subcircuit for sky130_fd_sc_hd__decap_8 abstract view
.subckt sky130_fd_sc_hd__decap_8 VGND VNB VPB VPWR
.ends

* Black-box entry subcircuit for sky130_ef_sc_hd__decap_12 abstract view
.subckt sky130_ef_sc_hd__decap_12 VGND VPWR VPB VNB
.ends

* Black-box entry subcircuit for sky130_fd_sc_hd__decap_6 abstract view
.subckt sky130_fd_sc_hd__decap_6 VGND VNB VPB VPWR
.ends

* Black-box entry subcircuit for sky130_fd_sc_hd__buf_2 abstract view
.subckt sky130_fd_sc_hd__buf_2 A VGND VNB VPB VPWR X
.ends

* Black-box entry subcircuit for sky130_fd_sc_hd__decap_3 abstract view
.subckt sky130_fd_sc_hd__decap_3 VGND VNB VPB VPWR
.ends

* Black-box entry subcircuit for sky130_fd_sc_hd__tapvpwrvgnd_1 abstract view
.subckt sky130_fd_sc_hd__tapvpwrvgnd_1 VGND VPWR
.ends

* Black-box entry subcircuit for sky130_fd_sc_hd__decap_4 abstract view
.subckt sky130_fd_sc_hd__decap_4 VGND VNB VPB VPWR
.ends

* Black-box entry subcircuit for sky130_fd_sc_hd__clkbuf_16 abstract view
.subckt sky130_fd_sc_hd__clkbuf_16 A VGND VNB VPB VPWR X
.ends

* Black-box entry subcircuit for sky130_fd_sc_hd__inv_1 abstract view
.subckt sky130_fd_sc_hd__inv_1 A VGND VNB VPB VPWR Y
.ends

* Black-box entry subcircuit for sky130_fd_sc_hd__clkdlybuf4s25_1 abstract view
.subckt sky130_fd_sc_hd__clkdlybuf4s25_1 A VGND VNB VPB VPWR X
.ends

* Black-box entry subcircuit for sky130_fd_sc_hd__buf_8 abstract view
.subckt sky130_fd_sc_hd__buf_8 A VGND VNB VPB VPWR X
.ends

* Black-box entry subcircuit for sky130_fd_sc_hd__or2b_1 abstract view
.subckt sky130_fd_sc_hd__or2b_1 A B_N VGND VNB VPB VPWR X
.ends

* Black-box entry subcircuit for sky130_fd_sc_hd__conb_1 abstract view
.subckt sky130_fd_sc_hd__conb_1 VGND VNB VPB VPWR HI LO
.ends

* Black-box entry subcircuit for sky130_fd_sc_hd__clkbuf_2 abstract view
.subckt sky130_fd_sc_hd__clkbuf_2 A VGND VNB VPB VPWR X
.ends

* Black-box entry subcircuit for sky130_fd_sc_hd__dlymetal6s2s_1 abstract view
.subckt sky130_fd_sc_hd__dlymetal6s2s_1 A VGND VNB VPB VPWR X
.ends

* Black-box entry subcircuit for sky130_fd_sc_hd__ebufn_8 abstract view
.subckt sky130_fd_sc_hd__ebufn_8 A TE_B VGND VNB VPB VPWR Z
.ends

* Black-box entry subcircuit for sky130_fd_sc_hd__ebufn_1 abstract view
.subckt sky130_fd_sc_hd__ebufn_1 A TE_B VGND VNB VPB VPWR Z
.ends

* Black-box entry subcircuit for sky130_fd_sc_hd__buf_4 abstract view
.subckt sky130_fd_sc_hd__buf_4 A VGND VNB VPB VPWR X
.ends

.subckt cbx_1__0_ IO_ISOL_N SC_IN_BOT SC_IN_TOP SC_OUT_BOT SC_OUT_TOP VGND VPWR bottom_grid_pin_0_
+ bottom_grid_pin_10_ bottom_grid_pin_12_ bottom_grid_pin_14_ bottom_grid_pin_16_
+ bottom_grid_pin_2_ bottom_grid_pin_4_ bottom_grid_pin_6_ bottom_grid_pin_8_ ccff_head
+ ccff_tail chanx_left_in[0] chanx_left_in[10] chanx_left_in[11] chanx_left_in[12]
+ chanx_left_in[13] chanx_left_in[14] chanx_left_in[15] chanx_left_in[16] chanx_left_in[17]
+ chanx_left_in[18] chanx_left_in[19] chanx_left_in[1] chanx_left_in[2] chanx_left_in[3]
+ chanx_left_in[4] chanx_left_in[5] chanx_left_in[6] chanx_left_in[7] chanx_left_in[8]
+ chanx_left_in[9] chanx_left_out[0] chanx_left_out[10] chanx_left_out[11] chanx_left_out[12]
+ chanx_left_out[13] chanx_left_out[14] chanx_left_out[15] chanx_left_out[16] chanx_left_out[17]
+ chanx_left_out[18] chanx_left_out[19] chanx_left_out[1] chanx_left_out[2] chanx_left_out[3]
+ chanx_left_out[4] chanx_left_out[5] chanx_left_out[6] chanx_left_out[7] chanx_left_out[8]
+ chanx_left_out[9] chanx_right_in[0] chanx_right_in[10] chanx_right_in[11] chanx_right_in[12]
+ chanx_right_in[13] chanx_right_in[14] chanx_right_in[15] chanx_right_in[16] chanx_right_in[17]
+ chanx_right_in[18] chanx_right_in[19] chanx_right_in[1] chanx_right_in[2] chanx_right_in[3]
+ chanx_right_in[4] chanx_right_in[5] chanx_right_in[6] chanx_right_in[7] chanx_right_in[8]
+ chanx_right_in[9] chanx_right_out[0] chanx_right_out[10] chanx_right_out[11] chanx_right_out[12]
+ chanx_right_out[13] chanx_right_out[14] chanx_right_out[15] chanx_right_out[16]
+ chanx_right_out[17] chanx_right_out[18] chanx_right_out[19] chanx_right_out[1] chanx_right_out[2]
+ chanx_right_out[3] chanx_right_out[4] chanx_right_out[5] chanx_right_out[6] chanx_right_out[7]
+ chanx_right_out[8] chanx_right_out[9] gfpga_pad_EMBEDDED_IO_HD_SOC_DIR[0] gfpga_pad_EMBEDDED_IO_HD_SOC_DIR[1]
+ gfpga_pad_EMBEDDED_IO_HD_SOC_DIR[2] gfpga_pad_EMBEDDED_IO_HD_SOC_DIR[3] gfpga_pad_EMBEDDED_IO_HD_SOC_DIR[4]
+ gfpga_pad_EMBEDDED_IO_HD_SOC_DIR[5] gfpga_pad_EMBEDDED_IO_HD_SOC_DIR[6] gfpga_pad_EMBEDDED_IO_HD_SOC_DIR[7]
+ gfpga_pad_EMBEDDED_IO_HD_SOC_DIR[8] gfpga_pad_EMBEDDED_IO_HD_SOC_IN[0] gfpga_pad_EMBEDDED_IO_HD_SOC_IN[1]
+ gfpga_pad_EMBEDDED_IO_HD_SOC_IN[2] gfpga_pad_EMBEDDED_IO_HD_SOC_IN[3] gfpga_pad_EMBEDDED_IO_HD_SOC_IN[4]
+ gfpga_pad_EMBEDDED_IO_HD_SOC_IN[5] gfpga_pad_EMBEDDED_IO_HD_SOC_IN[6] gfpga_pad_EMBEDDED_IO_HD_SOC_IN[7]
+ gfpga_pad_EMBEDDED_IO_HD_SOC_IN[8] gfpga_pad_EMBEDDED_IO_HD_SOC_OUT[0] gfpga_pad_EMBEDDED_IO_HD_SOC_OUT[1]
+ gfpga_pad_EMBEDDED_IO_HD_SOC_OUT[2] gfpga_pad_EMBEDDED_IO_HD_SOC_OUT[3] gfpga_pad_EMBEDDED_IO_HD_SOC_OUT[4]
+ gfpga_pad_EMBEDDED_IO_HD_SOC_OUT[5] gfpga_pad_EMBEDDED_IO_HD_SOC_OUT[6] gfpga_pad_EMBEDDED_IO_HD_SOC_OUT[7]
+ gfpga_pad_EMBEDDED_IO_HD_SOC_OUT[8] prog_clk_0_N_in prog_clk_0_W_out top_width_0_height_0__pin_0_
+ top_width_0_height_0__pin_10_ top_width_0_height_0__pin_11_lower top_width_0_height_0__pin_11_upper
+ top_width_0_height_0__pin_12_ top_width_0_height_0__pin_13_lower top_width_0_height_0__pin_13_upper
+ top_width_0_height_0__pin_14_ top_width_0_height_0__pin_15_lower top_width_0_height_0__pin_15_upper
+ top_width_0_height_0__pin_16_ top_width_0_height_0__pin_17_lower top_width_0_height_0__pin_17_upper
+ top_width_0_height_0__pin_1_lower top_width_0_height_0__pin_1_upper top_width_0_height_0__pin_2_
+ top_width_0_height_0__pin_3_lower top_width_0_height_0__pin_3_upper top_width_0_height_0__pin_4_
+ top_width_0_height_0__pin_5_lower top_width_0_height_0__pin_5_upper top_width_0_height_0__pin_6_
+ top_width_0_height_0__pin_7_lower top_width_0_height_0__pin_7_upper top_width_0_height_0__pin_8_
+ top_width_0_height_0__pin_9_lower top_width_0_height_0__pin_9_upper
XFILLER_22_111 VGND VGND VPWR VPWR sky130_fd_sc_hd__fill_1
XFILLER_22_100 VGND VGND VPWR VPWR sky130_fd_sc_hd__fill_2
XANTENNA_mux_top_ipin_7.mux_l1_in_0__A1 _36_/A VGND VGND VPWR VPWR sky130_fd_sc_hd__diode_2
Xmem_top_ipin_8.sky130_fd_sc_hd__dfxtp_1_0_ mem_top_ipin_8.sky130_fd_sc_hd__dfxtp_1_3_/CLK
+ hold11/X VGND VGND VPWR VPWR mux_top_ipin_8.mux_l1_in_2_/S sky130_fd_sc_hd__dfxtp_1
XFILLER_7_7 VGND VGND VPWR VPWR sky130_fd_sc_hd__fill_1
Xmux_top_ipin_1.mux_l1_in_1_ _18_/A _38_/A mux_top_ipin_1.mux_l1_in_2_/S VGND VGND
+ VPWR VPWR mux_top_ipin_1.mux_l1_in_1_/X sky130_fd_sc_hd__mux2_1
X_83_ _83_/A VGND VGND VPWR VPWR _83_/X sky130_fd_sc_hd__clkbuf_1
XFILLER_12_65 VGND VGND VPWR VPWR sky130_fd_sc_hd__decap_8
X_66_ _66_/A VGND VGND VPWR VPWR _66_/X sky130_fd_sc_hd__clkbuf_1
Xmux_top_ipin_6.mux_l2_in_0_ mux_top_ipin_6.mux_l1_in_1_/X mux_top_ipin_6.mux_l1_in_0_/X
+ mux_top_ipin_6.mux_l2_in_3_/S VGND VGND VPWR VPWR mux_top_ipin_6.mux_l2_in_0_/X
+ sky130_fd_sc_hd__mux2_1
XANTENNA_input55_A top_width_0_height_0__pin_10_ VGND VGND VPWR VPWR sky130_fd_sc_hd__diode_2
X_49_ _49_/A VGND VGND VPWR VPWR _49_/X sky130_fd_sc_hd__clkbuf_1
XFILLER_18_97 VGND VPWR VPWR VGND sky130_ef_sc_hd__decap_12
XFILLER_18_42 VGND VGND VPWR VPWR sky130_fd_sc_hd__fill_1
Xmux_top_ipin_6.mux_l1_in_1_ input37/X _37_/A mux_top_ipin_6.mux_l1_in_2_/S VGND VGND
+ VPWR VPWR mux_top_ipin_6.mux_l1_in_1_/X sky130_fd_sc_hd__mux2_1
XFILLER_20_76 VGND VGND VPWR VPWR sky130_fd_sc_hd__decap_8
XANTENNA_input18_A chanx_left_in[3] VGND VGND VPWR VPWR sky130_fd_sc_hd__diode_2
XFILLER_19_161 VGND VGND VPWR VPWR sky130_fd_sc_hd__decap_6
Xoutput64 _83_/X VGND VGND VPWR VPWR SC_OUT_TOP sky130_fd_sc_hd__buf_2
XFILLER_16_153 VGND VGND VPWR VPWR sky130_fd_sc_hd__decap_3
Xoutput75 _84_/X VGND VGND VPWR VPWR chanx_left_out[0] sky130_fd_sc_hd__buf_2
Xoutput86 _85_/X VGND VGND VPWR VPWR chanx_left_out[1] sky130_fd_sc_hd__buf_2
Xoutput97 _46_/X VGND VGND VPWR VPWR chanx_right_out[11] sky130_fd_sc_hd__buf_2
XANTENNA_mux_top_ipin_0.mux_l1_in_2__A0 _19_/A VGND VGND VPWR VPWR sky130_fd_sc_hd__diode_2
XTAP_112 VGND VPWR sky130_fd_sc_hd__tapvpwrvgnd_1
XTAP_101 VGND VPWR sky130_fd_sc_hd__tapvpwrvgnd_1
Xmux_top_ipin_1.mux_l1_in_0_ _85_/A _36_/A mux_top_ipin_1.mux_l1_in_2_/S VGND VGND
+ VPWR VPWR mux_top_ipin_1.mux_l1_in_0_/X sky130_fd_sc_hd__mux2_1
XFILLER_3_57 VGND VGND VPWR VPWR sky130_fd_sc_hd__fill_1
X_82_ _82_/A VGND VGND VPWR VPWR _82_/X sky130_fd_sc_hd__clkbuf_1
XANTENNA_mux_top_ipin_0.mux_l2_in_1__A0 _45_/A VGND VGND VPWR VPWR sky130_fd_sc_hd__diode_2
X_65_ _65_/A VGND VGND VPWR VPWR _65_/X sky130_fd_sc_hd__clkbuf_1
XANTENNA_input48_A gfpga_pad_EMBEDDED_IO_HD_SOC_IN[3] VGND VGND VPWR VPWR sky130_fd_sc_hd__diode_2
XFILLER_2_133 VGND VGND VPWR VPWR sky130_fd_sc_hd__fill_1
X_48_ _48_/A VGND VGND VPWR VPWR _48_/X sky130_fd_sc_hd__clkbuf_1
Xmux_top_ipin_6.mux_l1_in_0_ input25/X _35_/A mux_top_ipin_6.mux_l1_in_2_/S VGND VGND
+ VPWR VPWR mux_top_ipin_6.mux_l1_in_0_/X sky130_fd_sc_hd__mux2_1
XFILLER_15_33 VGND VGND VPWR VPWR sky130_fd_sc_hd__decap_4
Xclkbuf_0_prog_clk_0_N_in prog_clk_0_N_in VGND VGND VPWR VPWR clkbuf_0_prog_clk_0_N_in/X
+ sky130_fd_sc_hd__clkbuf_16
XANTENNA_input30_A chanx_right_in[14] VGND VGND VPWR VPWR sky130_fd_sc_hd__diode_2
Xoutput65 output65/A VGND VGND VPWR VPWR bottom_grid_pin_0_ sky130_fd_sc_hd__buf_2
Xoutput87 _86_/X VGND VGND VPWR VPWR chanx_left_out[2] sky130_fd_sc_hd__buf_2
Xoutput76 _25_/X VGND VGND VPWR VPWR chanx_left_out[10] sky130_fd_sc_hd__buf_2
Xoutput98 _47_/X VGND VGND VPWR VPWR chanx_right_out[12] sky130_fd_sc_hd__buf_2
XFILLER_22_135 VGND VGND VPWR VPWR sky130_fd_sc_hd__decap_4
XTAP_113 VGND VPWR sky130_fd_sc_hd__tapvpwrvgnd_1
XTAP_102 VGND VPWR sky130_fd_sc_hd__tapvpwrvgnd_1
XANTENNA_mux_top_ipin_0.mux_l1_in_2__A1 _39_/A VGND VGND VPWR VPWR sky130_fd_sc_hd__diode_2
XFILLER_13_102 VGND VGND VPWR VPWR sky130_fd_sc_hd__decap_8
X_81_ top_width_0_height_0__pin_9_lower VGND VGND VPWR VPWR _81_/X sky130_fd_sc_hd__clkbuf_1
XANTENNA_mux_top_ipin_7.mux_l2_in_2__A0 _52_/A VGND VGND VPWR VPWR sky130_fd_sc_hd__diode_2
X_64_ _64_/A VGND VGND VPWR VPWR _64_/X sky130_fd_sc_hd__clkbuf_1
Xlogical_tile_io_mode_io__5.ltile_phy_iopad_0.EMBEDDED_IO_HD_0_.INV_SOC_DIR _60_/A
+ VGND VGND VPWR VPWR logical_tile_io_mode_io__5.ltile_phy_iopad_0.EMBEDDED_IO_HD_0_.INV_SOC_DIR/Y
+ sky130_fd_sc_hd__inv_1
Xmux_top_ipin_4.sky130_fd_sc_hd__buf_4_0_ mux_top_ipin_4.mux_l4_in_0_/X VGND VGND
+ VPWR VPWR output73/A sky130_fd_sc_hd__clkbuf_1
X_47_ _47_/A VGND VGND VPWR VPWR _47_/X sky130_fd_sc_hd__clkbuf_1
XANTENNA_input60_A top_width_0_height_0__pin_4_ VGND VGND VPWR VPWR sky130_fd_sc_hd__diode_2
Xhold10 hold10/A VGND VGND VPWR VPWR hold10/X sky130_fd_sc_hd__clkdlybuf4s25_1
XFILLER_16_122 VGND VGND VPWR VPWR sky130_fd_sc_hd__fill_2
XANTENNA_input23_A chanx_left_in[8] VGND VGND VPWR VPWR sky130_fd_sc_hd__diode_2
Xoutput88 _18_/X VGND VGND VPWR VPWR chanx_left_out[3] sky130_fd_sc_hd__buf_2
Xoutput66 output66/A VGND VGND VPWR VPWR bottom_grid_pin_10_ sky130_fd_sc_hd__buf_2
Xoutput99 _48_/X VGND VGND VPWR VPWR chanx_right_out[13] sky130_fd_sc_hd__buf_2
Xoutput77 _26_/X VGND VGND VPWR VPWR chanx_left_out[11] sky130_fd_sc_hd__buf_2
XTAP_114 VGND VPWR sky130_fd_sc_hd__tapvpwrvgnd_1
XTAP_103 VGND VPWR sky130_fd_sc_hd__tapvpwrvgnd_1
XFILLER_22_169 VGND VGND VPWR VPWR sky130_fd_sc_hd__fill_1
X_80_ top_width_0_height_0__pin_7_lower VGND VGND VPWR VPWR _80_/X sky130_fd_sc_hd__clkbuf_1
XANTENNA_mux_top_ipin_7.mux_l2_in_2__A1 _26_/A VGND VGND VPWR VPWR sky130_fd_sc_hd__diode_2
X_63_ _63_/A VGND VGND VPWR VPWR _63_/X sky130_fd_sc_hd__clkbuf_1
Xprog_clk_0_FTB00 prog_clk_0_FTB00/A VGND VGND VPWR VPWR prog_clk_0_FTB00/X sky130_fd_sc_hd__buf_8
XFILLER_0_49 VGND VGND VPWR VPWR sky130_fd_sc_hd__fill_1
XFILLER_0_38 VGND VGND VPWR VPWR sky130_fd_sc_hd__fill_1
XFILLER_0_27 VGND VGND VPWR VPWR sky130_fd_sc_hd__fill_1
X_46_ _46_/A VGND VGND VPWR VPWR _46_/X sky130_fd_sc_hd__clkbuf_1
XANTENNA_input53_A gfpga_pad_EMBEDDED_IO_HD_SOC_IN[8] VGND VGND VPWR VPWR sky130_fd_sc_hd__diode_2
X_29_ _29_/A VGND VGND VPWR VPWR _29_/X sky130_fd_sc_hd__clkbuf_1
Xhold11 hold11/A VGND VGND VPWR VPWR hold11/X sky130_fd_sc_hd__clkdlybuf4s25_1
XANTENNA_mux_top_ipin_2.mux_l2_in_2__A0 _53_/A VGND VGND VPWR VPWR sky130_fd_sc_hd__diode_2
XFILLER_15_57 VGND VGND VPWR VPWR sky130_fd_sc_hd__decap_6
XANTENNA__20__A _20_/A VGND VGND VPWR VPWR sky130_fd_sc_hd__diode_2
Xoutput67 output67/A VGND VGND VPWR VPWR bottom_grid_pin_12_ sky130_fd_sc_hd__buf_2
Xoutput89 _19_/X VGND VGND VPWR VPWR chanx_left_out[4] sky130_fd_sc_hd__buf_2
Xlogical_tile_io_mode_io__1.ltile_phy_iopad_0.EMBEDDED_IO_HD_sky130_fd_sc_hd__dfxtp_1_mem.sky130_fd_sc_hd__dfxtp_1_0_
+ mem_top_ipin_4.sky130_fd_sc_hd__dfxtp_1_2_/CLK hold2/X VGND VGND VPWR VPWR hold8/A
+ sky130_fd_sc_hd__dfxtp_1
Xoutput78 _27_/X VGND VGND VPWR VPWR chanx_left_out[12] sky130_fd_sc_hd__buf_2
XTAP_115 VGND VPWR sky130_fd_sc_hd__tapvpwrvgnd_1
XTAP_104 VGND VPWR sky130_fd_sc_hd__tapvpwrvgnd_1
XFILLER_16_101 VGND VGND VPWR VPWR sky130_fd_sc_hd__fill_1
XANTENNA_input16_A chanx_left_in[1] VGND VGND VPWR VPWR sky130_fd_sc_hd__diode_2
XANTENNA_input8_A chanx_left_in[12] VGND VGND VPWR VPWR sky130_fd_sc_hd__diode_2
XFILLER_13_115 VGND VGND VPWR VPWR sky130_fd_sc_hd__decap_4
Xlogical_tile_io_mode_io__5.ltile_phy_iopad_0.EMBEDDED_IO_HD_0_.ISOL_EN_GATE hold1/A
+ repeater147/X VGND VGND VPWR VPWR _60_/A sky130_fd_sc_hd__or2b_1
Xmux_top_ipin_2.mux_l2_in_3_ mux_top_ipin_2.mux_l2_in_3_/A0 _33_/A mux_top_ipin_2.mux_l2_in_3_/S
+ VGND VGND VPWR VPWR mux_top_ipin_2.mux_l2_in_3_/X sky130_fd_sc_hd__mux2_1
Xmux_top_ipin_2.mux_l2_in_3__151 VGND VGND VPWR VPWR mux_top_ipin_2.mux_l2_in_3_/A0
+ mux_top_ipin_2.mux_l2_in_3__151/LO sky130_fd_sc_hd__conb_1
X_62_ _62_/A VGND VGND VPWR VPWR _62_/X sky130_fd_sc_hd__clkbuf_1
Xmux_top_ipin_2.mux_l4_in_0_ mux_top_ipin_2.mux_l3_in_1_/X mux_top_ipin_2.mux_l3_in_0_/X
+ hold15/A VGND VGND VPWR VPWR mux_top_ipin_2.mux_l4_in_0_/X sky130_fd_sc_hd__mux2_1
X_45_ _45_/A VGND VGND VPWR VPWR _45_/X sky130_fd_sc_hd__clkbuf_1
XANTENNA__23__A _23_/A VGND VGND VPWR VPWR sky130_fd_sc_hd__diode_2
XANTENNA_input46_A gfpga_pad_EMBEDDED_IO_HD_SOC_IN[1] VGND VGND VPWR VPWR sky130_fd_sc_hd__diode_2
X_28_ _28_/A VGND VGND VPWR VPWR _28_/X sky130_fd_sc_hd__clkbuf_1
Xmux_top_ipin_7.mux_l2_in_3_ mux_top_ipin_7.mux_l2_in_3_/A0 _32_/A mux_top_ipin_7.mux_l2_in_3_/S
+ VGND VGND VPWR VPWR mux_top_ipin_7.mux_l2_in_3_/X sky130_fd_sc_hd__mux2_1
Xhold12 hold12/A VGND VGND VPWR VPWR hold12/X sky130_fd_sc_hd__clkdlybuf4s25_1
XANTENNA__18__A _18_/A VGND VGND VPWR VPWR sky130_fd_sc_hd__diode_2
Xclkbuf_1_0__f_prog_clk_0_N_in clkbuf_0_prog_clk_0_N_in/X VGND VGND VPWR VPWR prog_clk_0_W_FTB01/A
+ sky130_fd_sc_hd__clkbuf_16
Xmux_top_ipin_2.mux_l3_in_1_ mux_top_ipin_2.mux_l2_in_3_/X mux_top_ipin_2.mux_l2_in_2_/X
+ mux_top_ipin_2.mux_l3_in_1_/S VGND VGND VPWR VPWR mux_top_ipin_2.mux_l3_in_1_/X
+ sky130_fd_sc_hd__mux2_1
XANTENNA_mux_top_ipin_2.mux_l2_in_2__A1 _27_/A VGND VGND VPWR VPWR sky130_fd_sc_hd__diode_2
XTAP_116 VGND VPWR sky130_fd_sc_hd__tapvpwrvgnd_1
XTAP_105 VGND VPWR sky130_fd_sc_hd__tapvpwrvgnd_1
Xoutput68 output68/A VGND VGND VPWR VPWR bottom_grid_pin_14_ sky130_fd_sc_hd__buf_2
Xoutput79 _28_/X VGND VGND VPWR VPWR chanx_left_out[13] sky130_fd_sc_hd__buf_2
Xmux_top_ipin_2.mux_l2_in_2_ _53_/A _27_/A mux_top_ipin_2.mux_l2_in_3_/S VGND VGND
+ VPWR VPWR mux_top_ipin_2.mux_l2_in_2_/X sky130_fd_sc_hd__mux2_1
XANTENNA__31__A _31_/A VGND VGND VPWR VPWR sky130_fd_sc_hd__diode_2
Xmux_top_ipin_7.mux_l4_in_0_ mux_top_ipin_7.mux_l3_in_1_/X mux_top_ipin_7.mux_l3_in_0_/X
+ hold11/A VGND VGND VPWR VPWR mux_top_ipin_7.mux_l4_in_0_/X sky130_fd_sc_hd__mux2_1
XANTENNA__26__A _26_/A VGND VGND VPWR VPWR sky130_fd_sc_hd__diode_2
X_61_ _61_/A VGND VGND VPWR VPWR _61_/X sky130_fd_sc_hd__clkbuf_1
XFILLER_2_104 VGND VGND VPWR VPWR sky130_fd_sc_hd__fill_1
Xmux_top_ipin_7.mux_l3_in_1_ mux_top_ipin_7.mux_l2_in_3_/X mux_top_ipin_7.mux_l2_in_2_/X
+ mux_top_ipin_7.mux_l3_in_1_/S VGND VGND VPWR VPWR mux_top_ipin_7.mux_l3_in_1_/X
+ sky130_fd_sc_hd__mux2_1
X_44_ _44_/A VGND VGND VPWR VPWR _44_/X sky130_fd_sc_hd__clkbuf_1
XANTENNA_input39_A chanx_right_in[4] VGND VGND VPWR VPWR sky130_fd_sc_hd__diode_2
XFILLER_1_50 VGND VGND VPWR VPWR sky130_fd_sc_hd__fill_1
X_27_ _27_/A VGND VGND VPWR VPWR _27_/X sky130_fd_sc_hd__clkbuf_1
Xmux_top_ipin_7.mux_l2_in_2_ _52_/A _26_/A mux_top_ipin_7.mux_l2_in_3_/S VGND VGND
+ VPWR VPWR mux_top_ipin_7.mux_l2_in_2_/X sky130_fd_sc_hd__mux2_1
Xhold13 hold13/A VGND VGND VPWR VPWR hold13/X sky130_fd_sc_hd__clkdlybuf4s25_1
Xlogical_tile_io_mode_io__8.ltile_phy_iopad_0.EMBEDDED_IO_HD_sky130_fd_sc_hd__dfxtp_1_mem.sky130_fd_sc_hd__dfxtp_1_0_
+ mem_top_ipin_6.sky130_fd_sc_hd__dfxtp_1_2_/CLK hold7/X VGND VGND VPWR VPWR output74/A
+ sky130_fd_sc_hd__dfxtp_1
XFILLER_19_111 VGND VGND VPWR VPWR sky130_fd_sc_hd__fill_1
Xmux_top_ipin_2.mux_l3_in_0_ mux_top_ipin_2.mux_l2_in_1_/X mux_top_ipin_2.mux_l2_in_0_/X
+ mux_top_ipin_2.mux_l3_in_1_/S VGND VGND VPWR VPWR mux_top_ipin_2.mux_l3_in_0_/X
+ sky130_fd_sc_hd__mux2_1
XFILLER_15_37 VGND VGND VPWR VPWR sky130_fd_sc_hd__fill_1
Xclkbuf_2_3__f_logical_tile_io_mode_io__0.ltile_phy_iopad_0.EMBEDDED_IO_HD_sky130_fd_sc_hd__dfxtp_1_mem.prog_clk
+ clkbuf_0_logical_tile_io_mode_io__0.ltile_phy_iopad_0.EMBEDDED_IO_HD_sky130_fd_sc_hd__dfxtp_1_mem.prog_clk/X
+ VGND VGND VPWR VPWR mem_top_ipin_8.sky130_fd_sc_hd__dfxtp_1_3_/CLK sky130_fd_sc_hd__clkbuf_16
Xoutput69 output69/A VGND VGND VPWR VPWR bottom_grid_pin_16_ sky130_fd_sc_hd__buf_2
XANTENNA__29__A _29_/A VGND VGND VPWR VPWR sky130_fd_sc_hd__diode_2
XFILLER_22_139 VGND VGND VPWR VPWR sky130_fd_sc_hd__fill_1
XFILLER_22_128 VGND VGND VPWR VPWR sky130_fd_sc_hd__fill_2
XTAP_117 VGND VPWR sky130_fd_sc_hd__tapvpwrvgnd_1
XTAP_106 VGND VPWR sky130_fd_sc_hd__tapvpwrvgnd_1
XPHY_0 VGND VGND VPWR VPWR sky130_fd_sc_hd__decap_3
XANTENNA_mux_top_ipin_6.mux_l1_in_2__A0 _21_/A VGND VGND VPWR VPWR sky130_fd_sc_hd__diode_2
Xmux_top_ipin_2.mux_l2_in_1_ _47_/A mux_top_ipin_2.mux_l1_in_2_/X mux_top_ipin_2.mux_l2_in_3_/S
+ VGND VGND VPWR VPWR mux_top_ipin_2.mux_l2_in_1_/X sky130_fd_sc_hd__mux2_1
XANTENNA_input21_A chanx_left_in[6] VGND VGND VPWR VPWR sky130_fd_sc_hd__diode_2
X_60_ _60_/A VGND VGND VPWR VPWR _60_/X sky130_fd_sc_hd__clkbuf_1
XANTENNA__42__A _42_/A VGND VGND VPWR VPWR sky130_fd_sc_hd__diode_2
XANTENNA_mux_top_ipin_6.mux_l2_in_1__A0 _45_/A VGND VGND VPWR VPWR sky130_fd_sc_hd__diode_2
Xmux_top_ipin_2.mux_l1_in_2_ _21_/A _41_/A mux_top_ipin_2.mux_l1_in_2_/S VGND VGND
+ VPWR VPWR mux_top_ipin_2.mux_l1_in_2_/X sky130_fd_sc_hd__mux2_1
Xmux_top_ipin_7.mux_l3_in_0_ mux_top_ipin_7.mux_l2_in_1_/X mux_top_ipin_7.mux_l2_in_0_/X
+ mux_top_ipin_7.mux_l3_in_1_/S VGND VGND VPWR VPWR mux_top_ipin_7.mux_l3_in_0_/X
+ sky130_fd_sc_hd__mux2_1
XFILLER_2_149 VGND VGND VPWR VPWR sky130_fd_sc_hd__fill_1
Xmux_top_ipin_7.sky130_fd_sc_hd__buf_4_0_ mux_top_ipin_7.mux_l4_in_0_/X VGND VGND
+ VPWR VPWR output68/A sky130_fd_sc_hd__clkbuf_1
X_43_ _43_/A VGND VGND VPWR VPWR _43_/X sky130_fd_sc_hd__clkbuf_1
XFILLER_18_59 VGND VPWR VPWR VGND sky130_ef_sc_hd__decap_12
XFILLER_20_27 VGND VGND VPWR VPWR sky130_fd_sc_hd__fill_1
Xmux_top_ipin_7.mux_l2_in_1_ _46_/A mux_top_ipin_7.mux_l1_in_2_/X mux_top_ipin_7.mux_l2_in_3_/S
+ VGND VGND VPWR VPWR mux_top_ipin_7.mux_l2_in_1_/X sky130_fd_sc_hd__mux2_1
X_26_ _26_/A VGND VGND VPWR VPWR _26_/X sky130_fd_sc_hd__clkbuf_1
Xhold14 hold14/A VGND VGND VPWR VPWR hold14/X sky130_fd_sc_hd__clkdlybuf4s25_1
XFILLER_19_167 VGND VGND VPWR VPWR sky130_fd_sc_hd__fill_1
XFILLER_6_29 VGND VGND VPWR VPWR sky130_fd_sc_hd__fill_1
XANTENNA_input51_A gfpga_pad_EMBEDDED_IO_HD_SOC_IN[6] VGND VGND VPWR VPWR sky130_fd_sc_hd__diode_2
XANTENNA__50__A _50_/A VGND VGND VPWR VPWR sky130_fd_sc_hd__diode_2
XANTENNA_mux_top_ipin_8.mux_l1_in_0__A1 _35_/A VGND VGND VPWR VPWR sky130_fd_sc_hd__diode_2
XANTENNA__45__A _45_/A VGND VGND VPWR VPWR sky130_fd_sc_hd__diode_2
XTAP_118 VGND VPWR sky130_fd_sc_hd__tapvpwrvgnd_1
XFILLER_22_107 VGND VGND VPWR VPWR sky130_fd_sc_hd__decap_4
XTAP_107 VGND VPWR sky130_fd_sc_hd__tapvpwrvgnd_1
Xmux_top_ipin_7.mux_l1_in_2_ _22_/A _42_/A mux_top_ipin_7.mux_l1_in_2_/S VGND VGND
+ VPWR VPWR mux_top_ipin_7.mux_l1_in_2_/X sky130_fd_sc_hd__mux2_1
XPHY_1 VGND VGND VPWR VPWR sky130_fd_sc_hd__decap_3
XANTENNA_mux_top_ipin_6.mux_l1_in_2__A1 _41_/A VGND VGND VPWR VPWR sky130_fd_sc_hd__diode_2
Xmux_top_ipin_2.mux_l2_in_0_ mux_top_ipin_2.mux_l1_in_1_/X mux_top_ipin_2.mux_l1_in_0_/X
+ mux_top_ipin_2.mux_l2_in_3_/S VGND VGND VPWR VPWR mux_top_ipin_2.mux_l2_in_0_/X
+ sky130_fd_sc_hd__mux2_1
XANTENNA_input14_A chanx_left_in[18] VGND VGND VPWR VPWR sky130_fd_sc_hd__diode_2
XANTENNA_input6_A chanx_left_in[10] VGND VGND VPWR VPWR sky130_fd_sc_hd__diode_2
Xlogical_tile_io_mode_io__0.ltile_phy_iopad_0.EMBEDDED_IO_HD_0_.INV_SOC_DIR _55_/A
+ VGND VGND VPWR VPWR logical_tile_io_mode_io__0.ltile_phy_iopad_0.EMBEDDED_IO_HD_0_.INV_SOC_DIR/Y
+ sky130_fd_sc_hd__inv_1
XFILLER_5_169 VGND VGND VPWR VPWR sky130_fd_sc_hd__fill_1
Xmux_top_ipin_2.mux_l1_in_1_ _86_/A input17/X mux_top_ipin_2.mux_l1_in_2_/S VGND VGND
+ VPWR VPWR mux_top_ipin_2.mux_l1_in_1_/X sky130_fd_sc_hd__mux2_1
XANTENNA__53__A _53_/A VGND VGND VPWR VPWR sky130_fd_sc_hd__diode_2
Xmem_top_ipin_1.sky130_fd_sc_hd__dfxtp_1_3_ mem_top_ipin_4.sky130_fd_sc_hd__dfxtp_1_0_/CLK
+ mux_top_ipin_1.mux_l3_in_1_/S VGND VGND VPWR VPWR hold12/A sky130_fd_sc_hd__dfxtp_1
X_42_ _42_/A VGND VGND VPWR VPWR _42_/X sky130_fd_sc_hd__clkbuf_1
XANTENNA_mux_top_ipin_4.mux_l2_in_3__A1 _29_/A VGND VGND VPWR VPWR sky130_fd_sc_hd__diode_2
XANTENNA_mux_top_ipin_3.mux_l1_in_0__A0 _85_/A VGND VGND VPWR VPWR sky130_fd_sc_hd__diode_2
XANTENNA__48__A _48_/A VGND VGND VPWR VPWR sky130_fd_sc_hd__diode_2
Xmux_top_ipin_7.mux_l2_in_0_ mux_top_ipin_7.mux_l1_in_1_/X mux_top_ipin_7.mux_l1_in_0_/X
+ mux_top_ipin_7.mux_l2_in_3_/S VGND VGND VPWR VPWR mux_top_ipin_7.mux_l2_in_0_/X
+ sky130_fd_sc_hd__mux2_1
XFILLER_1_30 VGND VGND VPWR VPWR sky130_fd_sc_hd__fill_1
X_25_ _25_/A VGND VGND VPWR VPWR _25_/X sky130_fd_sc_hd__clkbuf_1
XANTENNA_input44_A chanx_right_in[9] VGND VGND VPWR VPWR sky130_fd_sc_hd__diode_2
XFILLER_19_113 VGND VPWR VPWR VGND sky130_ef_sc_hd__decap_12
Xhold15 hold15/A VGND VGND VPWR VPWR hold15/X sky130_fd_sc_hd__clkdlybuf4s25_1
XANTENNA_mux_top_ipin_1.mux_l1_in_2__A0 _20_/A VGND VGND VPWR VPWR sky130_fd_sc_hd__diode_2
XTAP_119 VGND VPWR sky130_fd_sc_hd__tapvpwrvgnd_1
XFILLER_21_71 VGND VPWR VPWR VGND sky130_ef_sc_hd__decap_12
XTAP_108 VGND VPWR sky130_fd_sc_hd__tapvpwrvgnd_1
Xmux_top_ipin_7.mux_l1_in_1_ _18_/A _38_/A mux_top_ipin_7.mux_l1_in_2_/S VGND VGND
+ VPWR VPWR mux_top_ipin_7.mux_l1_in_1_/X sky130_fd_sc_hd__mux2_1
XPHY_2 VGND VGND VPWR VPWR sky130_fd_sc_hd__decap_3
XFILLER_13_119 VGND VGND VPWR VPWR sky130_fd_sc_hd__fill_1
Xrepeater143 input5/X VGND VGND VPWR VPWR _35_/A sky130_fd_sc_hd__clkbuf_2
Xlogical_tile_io_mode_io__3.ltile_phy_iopad_0.EMBEDDED_IO_HD_0_.ISOL_EN_GATE hold3/A
+ repeater148/X VGND VGND VPWR VPWR _58_/A sky130_fd_sc_hd__or2b_1
XFILLER_12_185 VGND VGND VPWR VPWR sky130_fd_sc_hd__fill_1
XANTENNA_mux_top_ipin_1.mux_l2_in_1__A0 _46_/A VGND VGND VPWR VPWR sky130_fd_sc_hd__diode_2
Xmem_top_ipin_4.sky130_fd_sc_hd__dfxtp_1_3_ mem_top_ipin_6.sky130_fd_sc_hd__dfxtp_1_2_/CLK
+ hold19/X VGND VGND VPWR VPWR hold16/A sky130_fd_sc_hd__dfxtp_1
Xmux_top_ipin_2.mux_l1_in_0_ _84_/A input5/X mux_top_ipin_2.mux_l1_in_2_/S VGND VGND
+ VPWR VPWR mux_top_ipin_2.mux_l1_in_0_/X sky130_fd_sc_hd__mux2_1
Xmem_top_ipin_1.sky130_fd_sc_hd__dfxtp_1_2_ mem_top_ipin_4.sky130_fd_sc_hd__dfxtp_1_0_/CLK
+ mux_top_ipin_1.mux_l2_in_3_/S VGND VGND VPWR VPWR mux_top_ipin_1.mux_l3_in_1_/S
+ sky130_fd_sc_hd__dfxtp_1
X_41_ _41_/A VGND VGND VPWR VPWR _41_/X sky130_fd_sc_hd__clkbuf_1
XANTENNA_mux_top_ipin_3.mux_l1_in_0__A1 _36_/A VGND VGND VPWR VPWR sky130_fd_sc_hd__diode_2
X_24_ _24_/A VGND VGND VPWR VPWR _24_/X sky130_fd_sc_hd__clkbuf_1
Xhold16 hold16/A VGND VGND VPWR VPWR hold16/X sky130_fd_sc_hd__clkdlybuf4s25_1
XFILLER_19_169 VGND VGND VPWR VPWR sky130_fd_sc_hd__fill_1
XFILLER_19_125 VGND VPWR VPWR VGND sky130_ef_sc_hd__decap_12
XFILLER_19_71 VGND VPWR VPWR VGND sky130_ef_sc_hd__decap_12
XANTENNA_input37_A chanx_right_in[2] VGND VGND VPWR VPWR sky130_fd_sc_hd__diode_2
Xmem_top_ipin_7.sky130_fd_sc_hd__dfxtp_1_3_ mem_top_ipin_8.sky130_fd_sc_hd__dfxtp_1_3_/CLK
+ mux_top_ipin_7.mux_l3_in_1_/S VGND VGND VPWR VPWR hold11/A sky130_fd_sc_hd__dfxtp_1
Xmux_top_ipin_0.sky130_fd_sc_hd__buf_4_0_ mux_top_ipin_0.mux_l4_in_0_/X VGND VGND
+ VPWR VPWR output65/A sky130_fd_sc_hd__clkbuf_1
XFILLER_21_83 VGND VPWR VPWR VGND sky130_ef_sc_hd__decap_12
XTAP_109 VGND VPWR sky130_fd_sc_hd__tapvpwrvgnd_1
Xmux_top_ipin_7.mux_l1_in_0_ _85_/A _36_/A mux_top_ipin_7.mux_l1_in_2_/S VGND VGND
+ VPWR VPWR mux_top_ipin_7.mux_l1_in_0_/X sky130_fd_sc_hd__mux2_1
Xrepeater144 input37/X VGND VGND VPWR VPWR _86_/A sky130_fd_sc_hd__dlymetal6s2s_1
XANTENNA_mux_top_ipin_8.mux_l2_in_2__A0 _53_/A VGND VGND VPWR VPWR sky130_fd_sc_hd__diode_2
XPHY_3 VGND VGND VPWR VPWR sky130_fd_sc_hd__decap_3
XFILLER_16_83 VGND VGND VPWR VPWR sky130_fd_sc_hd__fill_1
Xlogical_tile_io_mode_io__6.ltile_phy_iopad_0.EMBEDDED_IO_HD_0_.IN_PROTECT_GATE input51/X
+ logical_tile_io_mode_io__6.ltile_phy_iopad_0.EMBEDDED_IO_HD_0_.INV_SOC_DIR/Y VGND
+ VGND VPWR VPWR top_width_0_height_0__pin_13_lower sky130_fd_sc_hd__ebufn_8
XFILLER_8_102 VGND VGND VPWR VPWR sky130_fd_sc_hd__fill_1
Xmem_top_ipin_4.sky130_fd_sc_hd__dfxtp_1_2_ mem_top_ipin_4.sky130_fd_sc_hd__dfxtp_1_2_/CLK
+ mux_top_ipin_4.mux_l2_in_3_/S VGND VGND VPWR VPWR hold19/A sky130_fd_sc_hd__dfxtp_1
Xmem_top_ipin_1.sky130_fd_sc_hd__dfxtp_1_1_ mem_top_ipin_4.sky130_fd_sc_hd__dfxtp_1_2_/CLK
+ mux_top_ipin_1.mux_l1_in_2_/S VGND VGND VPWR VPWR mux_top_ipin_1.mux_l2_in_3_/S
+ sky130_fd_sc_hd__dfxtp_1
X_40_ _40_/A VGND VGND VPWR VPWR _40_/X sky130_fd_sc_hd__clkbuf_1
XANTENNA__80__A top_width_0_height_0__pin_7_lower VGND VGND VPWR VPWR sky130_fd_sc_hd__diode_2
Xmux_top_ipin_7.mux_l2_in_3__156 VGND VGND VPWR VPWR mux_top_ipin_7.mux_l2_in_3_/A0
+ mux_top_ipin_7.mux_l2_in_3__156/LO sky130_fd_sc_hd__conb_1
X_23_ _23_/A VGND VGND VPWR VPWR _23_/X sky130_fd_sc_hd__clkbuf_1
Xhold17 hold17/A VGND VGND VPWR VPWR hold17/X sky130_fd_sc_hd__clkdlybuf4s25_1
XFILLER_19_137 VGND VPWR VPWR VGND sky130_ef_sc_hd__decap_12
XFILLER_19_83 VGND VPWR VPWR VGND sky130_ef_sc_hd__decap_12
Xmem_top_ipin_7.sky130_fd_sc_hd__dfxtp_1_2_ mem_top_ipin_8.sky130_fd_sc_hd__dfxtp_1_3_/CLK
+ mux_top_ipin_7.mux_l2_in_3_/S VGND VGND VPWR VPWR mux_top_ipin_7.mux_l3_in_1_/S
+ sky130_fd_sc_hd__dfxtp_1
XFILLER_10_85 VGND VGND VPWR VPWR sky130_fd_sc_hd__fill_1
XFILLER_21_95 VGND VPWR VPWR VGND sky130_ef_sc_hd__decap_12
XFILLER_16_118 VGND VGND VPWR VPWR sky130_fd_sc_hd__fill_2
Xrepeater145 input25/X VGND VGND VPWR VPWR _84_/A sky130_fd_sc_hd__dlymetal6s2s_1
XANTENNA_mux_top_ipin_8.mux_l2_in_2__A1 _27_/A VGND VGND VPWR VPWR sky130_fd_sc_hd__diode_2
Xlogical_tile_io_mode_io__3.ltile_phy_iopad_0.EMBEDDED_IO_HD_0_.IN_PROTECT_GATE input48/X
+ logical_tile_io_mode_io__3.ltile_phy_iopad_0.EMBEDDED_IO_HD_0_.INV_SOC_DIR/Y VGND
+ VGND VPWR VPWR top_width_0_height_0__pin_7_lower sky130_fd_sc_hd__ebufn_8
XPHY_4 VGND VGND VPWR VPWR sky130_fd_sc_hd__decap_3
Xmem_top_ipin_4.sky130_fd_sc_hd__dfxtp_1_1_ mem_top_ipin_8.sky130_fd_sc_hd__dfxtp_1_3_/CLK
+ mux_top_ipin_4.mux_l1_in_2_/S VGND VGND VPWR VPWR mux_top_ipin_4.mux_l2_in_3_/S
+ sky130_fd_sc_hd__dfxtp_1
XANTENNA_input12_A chanx_left_in[16] VGND VGND VPWR VPWR sky130_fd_sc_hd__diode_2
XANTENNA_mux_top_ipin_5.mux_l1_in_1__A0 _18_/A VGND VGND VPWR VPWR sky130_fd_sc_hd__diode_2
Xlogical_tile_io_mode_io__6.ltile_phy_iopad_0.EMBEDDED_IO_HD_sky130_fd_sc_hd__dfxtp_1_mem.sky130_fd_sc_hd__dfxtp_1_0_
+ mem_top_ipin_6.sky130_fd_sc_hd__dfxtp_1_2_/CLK hold1/X VGND VGND VPWR VPWR hold6/A
+ sky130_fd_sc_hd__dfxtp_1
XANTENNA__78__A top_width_0_height_0__pin_3_lower VGND VGND VPWR VPWR sky130_fd_sc_hd__diode_2
XANTENNA_input4_A ccff_head VGND VGND VPWR VPWR sky130_fd_sc_hd__diode_2
Xlogical_tile_io_mode_io__4.ltile_phy_iopad_0.EMBEDDED_IO_HD_0_.INV_SOC_DIR _59_/A
+ VGND VGND VPWR VPWR logical_tile_io_mode_io__4.ltile_phy_iopad_0.EMBEDDED_IO_HD_0_.INV_SOC_DIR/Y
+ sky130_fd_sc_hd__inv_1
Xmem_top_ipin_1.sky130_fd_sc_hd__dfxtp_1_0_ mem_top_ipin_4.sky130_fd_sc_hd__dfxtp_1_2_/CLK
+ hold14/X VGND VGND VPWR VPWR mux_top_ipin_1.mux_l1_in_2_/S sky130_fd_sc_hd__dfxtp_1
X_22_ _22_/A VGND VGND VPWR VPWR _22_/X sky130_fd_sc_hd__clkbuf_1
Xhold18 hold18/A VGND VGND VPWR VPWR hold18/X sky130_fd_sc_hd__clkdlybuf4s25_1
XFILLER_19_149 VGND VPWR VPWR VGND sky130_ef_sc_hd__decap_12
XFILLER_19_95 VGND VPWR VPWR VGND sky130_ef_sc_hd__decap_12
Xmem_top_ipin_7.sky130_fd_sc_hd__dfxtp_1_1_ mem_top_ipin_8.sky130_fd_sc_hd__dfxtp_1_3_/CLK
+ mux_top_ipin_7.mux_l1_in_2_/S VGND VGND VPWR VPWR mux_top_ipin_7.mux_l2_in_3_/S
+ sky130_fd_sc_hd__dfxtp_1
Xlogical_tile_io_mode_io__0.ltile_phy_iopad_0.EMBEDDED_IO_HD_0_.IN_PROTECT_GATE input45/X
+ logical_tile_io_mode_io__0.ltile_phy_iopad_0.EMBEDDED_IO_HD_0_.INV_SOC_DIR/Y VGND
+ VGND VPWR VPWR top_width_0_height_0__pin_1_lower sky130_fd_sc_hd__ebufn_8