* NGSPICE file created from cby_2__1_.ext - technology: sky130A

* Black-box entry subcircuit for sky130_fd_sc_hd__decap_4 abstract view
.subckt sky130_fd_sc_hd__decap_4 VGND VNB VPB VPWR
.ends

* Black-box entry subcircuit for sky130_fd_sc_hd__fill_1 abstract view
.subckt sky130_fd_sc_hd__fill_1 VGND VNB VPB VPWR
.ends

* Black-box entry subcircuit for sky130_fd_sc_hd__mux2_1 abstract view
.subckt sky130_fd_sc_hd__mux2_1 A0 A1 S VGND VNB VPB VPWR X
.ends

* Black-box entry subcircuit for sky130_fd_sc_hd__clkbuf_1 abstract view
.subckt sky130_fd_sc_hd__clkbuf_1 A VGND VNB VPB VPWR X
.ends

* Black-box entry subcircuit for sky130_fd_sc_hd__dfxtp_1 abstract view
.subckt sky130_fd_sc_hd__dfxtp_1 CLK D VGND VNB VPB VPWR Q
.ends

* Black-box entry subcircuit for sky130_fd_sc_hd__clkbuf_16 abstract view
.subckt sky130_fd_sc_hd__clkbuf_16 A VGND VNB VPB VPWR X
.ends

* Black-box entry subcircuit for sky130_fd_sc_hd__diode_2 abstract view
.subckt sky130_fd_sc_hd__diode_2 DIODE VGND VNB VPB VPWR
.ends

* Black-box entry subcircuit for sky130_fd_sc_hd__buf_2 abstract view
.subckt sky130_fd_sc_hd__buf_2 A VGND VNB VPB VPWR X
.ends

* Black-box entry subcircuit for sky130_fd_sc_hd__tapvpwrvgnd_1 abstract view
.subckt sky130_fd_sc_hd__tapvpwrvgnd_1 VGND VPWR
.ends

* Black-box entry subcircuit for sky130_fd_sc_hd__conb_1 abstract view
.subckt sky130_fd_sc_hd__conb_1 VGND VNB VPB VPWR HI LO
.ends

* Black-box entry subcircuit for sky130_fd_sc_hd__decap_8 abstract view
.subckt sky130_fd_sc_hd__decap_8 VGND VNB VPB VPWR
.ends

* Black-box entry subcircuit for sky130_fd_sc_hd__clkdlybuf4s25_1 abstract view
.subckt sky130_fd_sc_hd__clkdlybuf4s25_1 A VGND VNB VPB VPWR X
.ends

* Black-box entry subcircuit for sky130_fd_sc_hd__buf_8 abstract view
.subckt sky130_fd_sc_hd__buf_8 A VGND VNB VPB VPWR X
.ends

* Black-box entry subcircuit for sky130_fd_sc_hd__decap_3 abstract view
.subckt sky130_fd_sc_hd__decap_3 VGND VNB VPB VPWR
.ends

* Black-box entry subcircuit for sky130_fd_sc_hd__clkbuf_2 abstract view
.subckt sky130_fd_sc_hd__clkbuf_2 A VGND VNB VPB VPWR X
.ends

* Black-box entry subcircuit for sky130_fd_sc_hd__inv_1 abstract view
.subckt sky130_fd_sc_hd__inv_1 A VGND VNB VPB VPWR Y
.ends

* Black-box entry subcircuit for sky130_fd_sc_hd__dlymetal6s2s_1 abstract view
.subckt sky130_fd_sc_hd__dlymetal6s2s_1 A VGND VNB VPB VPWR X
.ends

* Black-box entry subcircuit for sky130_fd_sc_hd__ebufn_8 abstract view
.subckt sky130_fd_sc_hd__ebufn_8 A TE_B VGND VNB VPB VPWR Z
.ends

* Black-box entry subcircuit for sky130_fd_sc_hd__fill_2 abstract view
.subckt sky130_fd_sc_hd__fill_2 VGND VNB VPB VPWR
.ends

* Black-box entry subcircuit for sky130_fd_sc_hd__decap_6 abstract view
.subckt sky130_fd_sc_hd__decap_6 VGND VNB VPB VPWR
.ends

* Black-box entry subcircuit for sky130_fd_sc_hd__buf_4 abstract view
.subckt sky130_fd_sc_hd__buf_4 A VGND VNB VPB VPWR X
.ends

* Black-box entry subcircuit for sky130_fd_sc_hd__or2b_2 abstract view
.subckt sky130_fd_sc_hd__or2b_2 A B_N VGND VNB VPB VPWR X
.ends

.subckt cby_2__1_ IO_ISOL_N VGND VPWR ccff_head ccff_tail chany_bottom_in[0] chany_bottom_in[10]
+ chany_bottom_in[11] chany_bottom_in[12] chany_bottom_in[13] chany_bottom_in[14]
+ chany_bottom_in[15] chany_bottom_in[16] chany_bottom_in[17] chany_bottom_in[18]
+ chany_bottom_in[19] chany_bottom_in[1] chany_bottom_in[2] chany_bottom_in[3] chany_bottom_in[4]
+ chany_bottom_in[5] chany_bottom_in[6] chany_bottom_in[7] chany_bottom_in[8] chany_bottom_in[9]
+ chany_bottom_out[0] chany_bottom_out[10] chany_bottom_out[11] chany_bottom_out[12]
+ chany_bottom_out[13] chany_bottom_out[14] chany_bottom_out[15] chany_bottom_out[16]
+ chany_bottom_out[17] chany_bottom_out[18] chany_bottom_out[19] chany_bottom_out[1]
+ chany_bottom_out[2] chany_bottom_out[3] chany_bottom_out[4] chany_bottom_out[5]
+ chany_bottom_out[6] chany_bottom_out[7] chany_bottom_out[8] chany_bottom_out[9]
+ chany_top_in[0] chany_top_in[10] chany_top_in[11] chany_top_in[12] chany_top_in[13]
+ chany_top_in[14] chany_top_in[15] chany_top_in[16] chany_top_in[17] chany_top_in[18]
+ chany_top_in[19] chany_top_in[1] chany_top_in[2] chany_top_in[3] chany_top_in[4]
+ chany_top_in[5] chany_top_in[6] chany_top_in[7] chany_top_in[8] chany_top_in[9]
+ chany_top_out[0] chany_top_out[10] chany_top_out[11] chany_top_out[12] chany_top_out[13]
+ chany_top_out[14] chany_top_out[15] chany_top_out[16] chany_top_out[17] chany_top_out[18]
+ chany_top_out[19] chany_top_out[1] chany_top_out[2] chany_top_out[3] chany_top_out[4]
+ chany_top_out[5] chany_top_out[6] chany_top_out[7] chany_top_out[8] chany_top_out[9]
+ gfpga_pad_EMBEDDED_IO_HD_SOC_DIR gfpga_pad_EMBEDDED_IO_HD_SOC_IN gfpga_pad_EMBEDDED_IO_HD_SOC_OUT
+ left_grid_pin_16_ left_grid_pin_17_ left_grid_pin_18_ left_grid_pin_19_ left_grid_pin_20_
+ left_grid_pin_21_ left_grid_pin_22_ left_grid_pin_23_ left_grid_pin_24_ left_grid_pin_25_
+ left_grid_pin_26_ left_grid_pin_27_ left_grid_pin_28_ left_grid_pin_29_ left_grid_pin_30_
+ left_grid_pin_31_ left_width_0_height_0__pin_0_ left_width_0_height_0__pin_1_lower
+ left_width_0_height_0__pin_1_upper prog_clk_0_N_out prog_clk_0_S_out prog_clk_0_W_in
+ right_grid_pin_0_
XFILLER_13_155 VGND VGND VPWR VPWR sky130_fd_sc_hd__decap_4
XFILLER_13_111 VGND VGND VPWR VPWR sky130_fd_sc_hd__fill_1
Xmux_right_ipin_11.mux_l2_in_0_ mux_right_ipin_11.mux_l1_in_1_/X mux_right_ipin_11.mux_l1_in_0_/X
+ mux_right_ipin_11.mux_l2_in_3_/S VGND VGND VPWR VPWR mux_right_ipin_11.mux_l2_in_0_/X
+ sky130_fd_sc_hd__mux2_1
X_66_ _66_/A VGND VGND VPWR VPWR _66_/X sky130_fd_sc_hd__clkbuf_1
XFILLER_23_75 VGND VGND VPWR VPWR sky130_fd_sc_hd__fill_1
Xmem_right_ipin_15.sky130_fd_sc_hd__dfxtp_1_1_ mem_right_ipin_15.sky130_fd_sc_hd__dfxtp_1_3_/CLK
+ mux_right_ipin_15.mux_l1_in_2_/S VGND VGND VPWR VPWR mux_right_ipin_15.mux_l2_in_3_/S
+ sky130_fd_sc_hd__dfxtp_1
XFILLER_9_11 VGND VGND VPWR VPWR sky130_fd_sc_hd__fill_1
Xmux_right_ipin_11.mux_l1_in_1_ _36_/A _56_/A mux_right_ipin_11.mux_l1_in_2_/S VGND
+ VGND VPWR VPWR mux_right_ipin_11.mux_l1_in_1_/X sky130_fd_sc_hd__mux2_1
X_49_ _49_/A VGND VGND VPWR VPWR _49_/X sky130_fd_sc_hd__clkbuf_1
Xclkbuf_3_7__f_logical_tile_io_mode_io__0.ltile_phy_iopad_0.EMBEDDED_IO_HD_sky130_fd_sc_hd__dfxtp_1_mem.prog_clk
+ clkbuf_0_logical_tile_io_mode_io__0.ltile_phy_iopad_0.EMBEDDED_IO_HD_sky130_fd_sc_hd__dfxtp_1_mem.prog_clk/X
+ VGND VGND VPWR VPWR mem_right_ipin_15.sky130_fd_sc_hd__dfxtp_1_3_/CLK sky130_fd_sc_hd__clkbuf_16
Xmem_right_ipin_12.sky130_fd_sc_hd__dfxtp_1_0_ mem_right_ipin_8.sky130_fd_sc_hd__dfxtp_1_2_/CLK
+ hold7/X VGND VGND VPWR VPWR mux_right_ipin_12.mux_l1_in_2_/S sky130_fd_sc_hd__dfxtp_1
XFILLER_20_87 VGND VGND VPWR VPWR sky130_fd_sc_hd__fill_1
XFILLER_20_65 VGND VGND VPWR VPWR sky130_fd_sc_hd__fill_1
XANTENNA_input18_A chany_bottom_in[5] VGND VGND VPWR VPWR sky130_fd_sc_hd__diode_2
Xoutput75 _72_/X VGND VGND VPWR VPWR chany_top_out[18] sky130_fd_sc_hd__buf_2
Xoutput97 output97/A VGND VGND VPWR VPWR left_grid_pin_26_ sky130_fd_sc_hd__buf_2
Xoutput86 output86/A VGND VGND VPWR VPWR gfpga_pad_EMBEDDED_IO_HD_SOC_DIR sky130_fd_sc_hd__buf_2
Xoutput53 _50_/X VGND VGND VPWR VPWR chany_bottom_out[16] sky130_fd_sc_hd__buf_2
Xoutput64 _42_/X VGND VGND VPWR VPWR chany_bottom_out[8] sky130_fd_sc_hd__buf_2
XTAP_123 VGND VPWR sky130_fd_sc_hd__tapvpwrvgnd_1
XTAP_112 VGND VPWR sky130_fd_sc_hd__tapvpwrvgnd_1
XTAP_101 VGND VPWR sky130_fd_sc_hd__tapvpwrvgnd_1
X_65_ _65_/A VGND VGND VPWR VPWR _65_/X sky130_fd_sc_hd__clkbuf_1
Xmux_right_ipin_8.sky130_fd_sc_hd__buf_4_0_ mux_right_ipin_8.mux_l4_in_0_/X VGND VGND
+ VPWR VPWR output95/A sky130_fd_sc_hd__clkbuf_1
Xmem_right_ipin_15.sky130_fd_sc_hd__dfxtp_1_0_ mem_right_ipin_15.sky130_fd_sc_hd__dfxtp_1_3_/CLK
+ hold16/X VGND VGND VPWR VPWR mux_right_ipin_15.mux_l1_in_2_/S sky130_fd_sc_hd__dfxtp_1
XANTENNA_mux_right_ipin_3.mux_l2_in_2__A0 _68_/A VGND VGND VPWR VPWR sky130_fd_sc_hd__diode_2
Xmux_right_ipin_11.mux_l1_in_0_ _34_/A _54_/A mux_right_ipin_11.mux_l1_in_2_/S VGND
+ VGND VPWR VPWR mux_right_ipin_11.mux_l1_in_0_/X sky130_fd_sc_hd__mux2_1
X_48_ _48_/A VGND VGND VPWR VPWR _48_/X sky130_fd_sc_hd__clkbuf_1
Xmux_right_ipin_0.mux_l2_in_3__130 VGND VGND VPWR VPWR mux_right_ipin_0.mux_l2_in_3_/A0
+ mux_right_ipin_0.mux_l2_in_3__130/LO sky130_fd_sc_hd__conb_1
XFILLER_15_7 VGND VGND VPWR VPWR sky130_fd_sc_hd__decap_8
Xclkbuf_1_1__f_prog_clk_0_W_in clkbuf_0_prog_clk_0_W_in/X VGND VGND VPWR VPWR prog_clk_0_FTB00/A
+ sky130_fd_sc_hd__clkbuf_16
Xhold20 hold20/A VGND VGND VPWR VPWR hold20/X sky130_fd_sc_hd__clkdlybuf4s25_1
Xoutput76 _73_/X VGND VGND VPWR VPWR chany_top_out[19] sky130_fd_sc_hd__buf_2
Xoutput98 output98/A VGND VGND VPWR VPWR left_grid_pin_27_ sky130_fd_sc_hd__buf_2
XANTENNA_input30_A chany_top_in[16] VGND VGND VPWR VPWR sky130_fd_sc_hd__diode_2
Xoutput54 _51_/X VGND VGND VPWR VPWR chany_bottom_out[17] sky130_fd_sc_hd__buf_2
Xoutput65 _43_/X VGND VGND VPWR VPWR chany_bottom_out[9] sky130_fd_sc_hd__buf_2
Xoutput87 output87/A VGND VGND VPWR VPWR left_grid_pin_16_ sky130_fd_sc_hd__buf_2
XTAP_124 VGND VPWR sky130_fd_sc_hd__tapvpwrvgnd_1
XTAP_113 VGND VPWR sky130_fd_sc_hd__tapvpwrvgnd_1
XTAP_102 VGND VPWR sky130_fd_sc_hd__tapvpwrvgnd_1
Xmux_right_ipin_7.mux_l2_in_3__126 VGND VGND VPWR VPWR mux_right_ipin_7.mux_l2_in_3_/A0
+ mux_right_ipin_7.mux_l2_in_3__126/LO sky130_fd_sc_hd__conb_1
X_64_ _64_/A VGND VGND VPWR VPWR _64_/X sky130_fd_sc_hd__clkbuf_1
Xmux_right_ipin_3.mux_l2_in_3_ mux_right_ipin_3.mux_l2_in_3_/A0 _48_/A mux_right_ipin_3.mux_l2_in_3_/S
+ VGND VGND VPWR VPWR mux_right_ipin_3.mux_l2_in_3_/X sky130_fd_sc_hd__mux2_1
XFILLER_2_145 VGND VGND VPWR VPWR sky130_fd_sc_hd__fill_1
XANTENNA_mux_right_ipin_3.mux_l2_in_2__A1 _42_/A VGND VGND VPWR VPWR sky130_fd_sc_hd__diode_2
X_47_ _47_/A VGND VGND VPWR VPWR _47_/X sky130_fd_sc_hd__clkbuf_1
Xmux_right_ipin_2.mux_l2_in_3__138 VGND VGND VPWR VPWR mux_right_ipin_2.mux_l2_in_3_/A0
+ mux_right_ipin_2.mux_l2_in_3__138/LO sky130_fd_sc_hd__conb_1
XANTENNA_mux_right_ipin_13.mux_l2_in_1__A0 _64_/A VGND VGND VPWR VPWR sky130_fd_sc_hd__diode_2
Xhold21 hold21/A VGND VGND VPWR VPWR hold21/X sky130_fd_sc_hd__clkdlybuf4s25_1
Xmux_right_ipin_3.mux_l4_in_0_ mux_right_ipin_3.mux_l3_in_1_/X mux_right_ipin_3.mux_l3_in_0_/X
+ hold6/A VGND VGND VPWR VPWR mux_right_ipin_3.mux_l4_in_0_/X sky130_fd_sc_hd__mux2_1
Xhold10 hold10/A VGND VGND VPWR VPWR hold10/X sky130_fd_sc_hd__clkdlybuf4s25_1
Xoutput77 _55_/X VGND VGND VPWR VPWR chany_top_out[1] sky130_fd_sc_hd__buf_2
Xoutput66 _54_/X VGND VGND VPWR VPWR chany_top_out[0] sky130_fd_sc_hd__buf_2
Xoutput99 output99/A VGND VGND VPWR VPWR left_grid_pin_28_ sky130_fd_sc_hd__buf_2
XANTENNA_input23_A chany_top_in[0] VGND VGND VPWR VPWR sky130_fd_sc_hd__diode_2
Xoutput55 _52_/X VGND VGND VPWR VPWR chany_bottom_out[18] sky130_fd_sc_hd__buf_2
Xoutput88 output88/A VGND VGND VPWR VPWR left_grid_pin_17_ sky130_fd_sc_hd__buf_2
XTAP_125 VGND VPWR sky130_fd_sc_hd__tapvpwrvgnd_1
XTAP_114 VGND VPWR sky130_fd_sc_hd__tapvpwrvgnd_1
XTAP_103 VGND VPWR sky130_fd_sc_hd__tapvpwrvgnd_1
Xmux_right_ipin_8.mux_l2_in_3_ mux_right_ipin_8.mux_l2_in_3_/A0 _53_/A mux_right_ipin_8.mux_l2_in_3_/S
+ VGND VGND VPWR VPWR mux_right_ipin_8.mux_l2_in_3_/X sky130_fd_sc_hd__mux2_1
XANTENNA_mux_right_ipin_15.mux_l1_in_0__A1 input3/X VGND VGND VPWR VPWR sky130_fd_sc_hd__diode_2
Xmux_right_ipin_3.mux_l3_in_1_ mux_right_ipin_3.mux_l2_in_3_/X mux_right_ipin_3.mux_l2_in_2_/X
+ mux_right_ipin_3.mux_l3_in_1_/S VGND VGND VPWR VPWR mux_right_ipin_3.mux_l3_in_1_/X
+ sky130_fd_sc_hd__mux2_1
X_63_ _63_/A VGND VGND VPWR VPWR _63_/X sky130_fd_sc_hd__clkbuf_1
XFILLER_4_91 VGND VGND VPWR VPWR sky130_fd_sc_hd__fill_1
Xmux_right_ipin_3.mux_l2_in_2_ _68_/A _42_/A mux_right_ipin_3.mux_l2_in_3_/S VGND
+ VGND VPWR VPWR mux_right_ipin_3.mux_l2_in_2_/X sky130_fd_sc_hd__mux2_1
Xprog_clk_0_FTB00 prog_clk_0_FTB00/A VGND VGND VPWR VPWR prog_clk_0_FTB00/X sky130_fd_sc_hd__buf_8
Xmux_right_ipin_8.mux_l4_in_0_ mux_right_ipin_8.mux_l3_in_1_/X mux_right_ipin_8.mux_l3_in_0_/X
+ hold4/A VGND VGND VPWR VPWR mux_right_ipin_8.mux_l4_in_0_/X sky130_fd_sc_hd__mux2_1
X_46_ _46_/A VGND VGND VPWR VPWR _46_/X sky130_fd_sc_hd__clkbuf_1
XANTENNA_mux_right_ipin_7.mux_l1_in_2__A0 _42_/A VGND VGND VPWR VPWR sky130_fd_sc_hd__diode_2
Xmux_right_ipin_8.mux_l3_in_1_ mux_right_ipin_8.mux_l2_in_3_/X mux_right_ipin_8.mux_l2_in_2_/X
+ mux_right_ipin_8.mux_l3_in_1_/S VGND VGND VPWR VPWR mux_right_ipin_8.mux_l3_in_1_/X
+ sky130_fd_sc_hd__mux2_1
Xmux_right_ipin_1.sky130_fd_sc_hd__buf_4_0_ mux_right_ipin_1.mux_l4_in_0_/X VGND VGND
+ VPWR VPWR output88/A sky130_fd_sc_hd__clkbuf_1
Xhold22 hold22/A VGND VGND VPWR VPWR hold22/X sky130_fd_sc_hd__clkdlybuf4s25_1
Xhold11 hold11/A VGND VGND VPWR VPWR hold11/X sky130_fd_sc_hd__clkdlybuf4s25_1
XANTENNA_mux_right_ipin_7.mux_l2_in_1__A0 _66_/A VGND VGND VPWR VPWR sky130_fd_sc_hd__diode_2
Xclkbuf_0_prog_clk_0_W_in prog_clk_0_W_in VGND VGND VPWR VPWR clkbuf_0_prog_clk_0_W_in/X
+ sky130_fd_sc_hd__clkbuf_16
Xoutput67 _64_/X VGND VGND VPWR VPWR chany_top_out[10] sky130_fd_sc_hd__buf_2
Xoutput78 _56_/X VGND VGND VPWR VPWR chany_top_out[2] sky130_fd_sc_hd__buf_2
Xmux_right_ipin_11.mux_l2_in_3__133 VGND VGND VPWR VPWR mux_right_ipin_11.mux_l2_in_3_/A0
+ mux_right_ipin_11.mux_l2_in_3__133/LO sky130_fd_sc_hd__conb_1
Xoutput56 _53_/X VGND VGND VPWR VPWR chany_bottom_out[19] sky130_fd_sc_hd__buf_2
Xoutput89 output89/A VGND VGND VPWR VPWR left_grid_pin_18_ sky130_fd_sc_hd__buf_2
Xoutput45 output45/A VGND VGND VPWR VPWR ccff_tail sky130_fd_sc_hd__buf_2
XTAP_126 VGND VPWR sky130_fd_sc_hd__tapvpwrvgnd_1
XTAP_115 VGND VPWR sky130_fd_sc_hd__tapvpwrvgnd_1
XTAP_104 VGND VPWR sky130_fd_sc_hd__tapvpwrvgnd_1
Xmux_right_ipin_8.mux_l2_in_2_ _73_/A _47_/A mux_right_ipin_8.mux_l2_in_3_/S VGND
+ VGND VPWR VPWR mux_right_ipin_8.mux_l2_in_2_/X sky130_fd_sc_hd__mux2_1
XANTENNA_input16_A chany_bottom_in[3] VGND VGND VPWR VPWR sky130_fd_sc_hd__diode_2
XFILLER_7_80 VGND VGND VPWR VPWR sky130_fd_sc_hd__fill_1
Xmux_right_ipin_3.mux_l3_in_0_ mux_right_ipin_3.mux_l2_in_1_/X mux_right_ipin_3.mux_l2_in_0_/X
+ mux_right_ipin_3.mux_l3_in_1_/S VGND VGND VPWR VPWR mux_right_ipin_3.mux_l3_in_0_/X
+ sky130_fd_sc_hd__mux2_1
XANTENNA_input8_A chany_bottom_in[14] VGND VGND VPWR VPWR sky130_fd_sc_hd__diode_2
XFILLER_8_141 VGND VGND VPWR VPWR sky130_fd_sc_hd__fill_1
X_62_ _62_/A VGND VGND VPWR VPWR _62_/X sky130_fd_sc_hd__clkbuf_1
Xmux_right_ipin_3.mux_l2_in_1_ _62_/A mux_right_ipin_3.mux_l1_in_2_/X mux_right_ipin_3.mux_l2_in_3_/S
+ VGND VGND VPWR VPWR mux_right_ipin_3.mux_l2_in_1_/X sky130_fd_sc_hd__mux2_1
XFILLER_23_46 VGND VGND VPWR VPWR sky130_fd_sc_hd__fill_1
XFILLER_13_90 VGND VGND VPWR VPWR sky130_fd_sc_hd__fill_1
X_45_ _45_/A VGND VGND VPWR VPWR _45_/X sky130_fd_sc_hd__clkbuf_1
Xmux_right_ipin_12.mux_l2_in_3_ mux_right_ipin_12.mux_l2_in_3_/A0 _51_/A mux_right_ipin_12.mux_l2_in_3_/S
+ VGND VGND VPWR VPWR mux_right_ipin_12.mux_l2_in_3_/X sky130_fd_sc_hd__mux2_1
Xmux_right_ipin_3.mux_l1_in_2_ _38_/A _58_/A mux_right_ipin_3.mux_l1_in_2_/S VGND
+ VGND VPWR VPWR mux_right_ipin_3.mux_l1_in_2_/X sky130_fd_sc_hd__mux2_1
XANTENNA_mux_right_ipin_7.mux_l1_in_2__A1 _62_/A VGND VGND VPWR VPWR sky130_fd_sc_hd__diode_2
Xmux_right_ipin_8.mux_l3_in_0_ mux_right_ipin_8.mux_l2_in_1_/X mux_right_ipin_8.mux_l2_in_0_/X
+ mux_right_ipin_8.mux_l3_in_1_/S VGND VGND VPWR VPWR mux_right_ipin_8.mux_l3_in_0_/X
+ sky130_fd_sc_hd__mux2_1
Xhold23 hold23/A VGND VGND VPWR VPWR hold23/X sky130_fd_sc_hd__clkdlybuf4s25_1
Xhold12 hold12/A VGND VGND VPWR VPWR hold12/X sky130_fd_sc_hd__clkdlybuf4s25_1
Xoutput46 _34_/X VGND VGND VPWR VPWR chany_bottom_out[0] sky130_fd_sc_hd__buf_2
Xoutput57 _35_/X VGND VGND VPWR VPWR chany_bottom_out[1] sky130_fd_sc_hd__buf_2
XTAP_127 VGND VPWR sky130_fd_sc_hd__tapvpwrvgnd_1
Xoutput68 _65_/X VGND VGND VPWR VPWR chany_top_out[11] sky130_fd_sc_hd__buf_2
Xoutput79 _57_/X VGND VGND VPWR VPWR chany_top_out[3] sky130_fd_sc_hd__buf_2
XTAP_116 VGND VPWR sky130_fd_sc_hd__tapvpwrvgnd_1
XTAP_105 VGND VPWR sky130_fd_sc_hd__tapvpwrvgnd_1
XFILLER_16_135 VGND VGND VPWR VPWR sky130_fd_sc_hd__fill_1
Xmux_right_ipin_8.mux_l2_in_1_ _67_/A mux_right_ipin_8.mux_l1_in_2_/X mux_right_ipin_8.mux_l2_in_3_/S
+ VGND VGND VPWR VPWR mux_right_ipin_8.mux_l2_in_1_/X sky130_fd_sc_hd__mux2_1
Xmux_right_ipin_12.mux_l4_in_0_ mux_right_ipin_12.mux_l3_in_1_/X mux_right_ipin_12.mux_l3_in_0_/X
+ hold1/A VGND VGND VPWR VPWR mux_right_ipin_12.mux_l4_in_0_/X sky130_fd_sc_hd__mux2_1
XFILLER_26_79 VGND VGND VPWR VPWR sky130_fd_sc_hd__fill_1
XFILLER_26_35 VGND VGND VPWR VPWR sky130_fd_sc_hd__fill_1
XANTENNA_mux_right_ipin_5.mux_l2_in_3__A1 _52_/A VGND VGND VPWR VPWR sky130_fd_sc_hd__diode_2
XANTENNA_mux_right_ipin_15.mux_l2_in_2__A0 _70_/A VGND VGND VPWR VPWR sky130_fd_sc_hd__diode_2
Xmux_right_ipin_8.mux_l1_in_2_ _43_/A _63_/A mux_right_ipin_8.mux_l1_in_2_/S VGND
+ VGND VPWR VPWR mux_right_ipin_8.mux_l1_in_2_/X sky130_fd_sc_hd__mux2_1
X_61_ _61_/A VGND VGND VPWR VPWR _61_/X sky130_fd_sc_hd__clkbuf_1
Xmux_right_ipin_12.mux_l3_in_1_ mux_right_ipin_12.mux_l2_in_3_/X mux_right_ipin_12.mux_l2_in_2_/X
+ mux_right_ipin_12.mux_l3_in_1_/S VGND VGND VPWR VPWR mux_right_ipin_12.mux_l3_in_1_/X
+ sky130_fd_sc_hd__mux2_1
Xmux_right_ipin_3.mux_l2_in_0_ mux_right_ipin_3.mux_l1_in_1_/X mux_right_ipin_3.mux_l1_in_0_/X
+ mux_right_ipin_3.mux_l2_in_3_/S VGND VGND VPWR VPWR mux_right_ipin_3.mux_l2_in_0_/X
+ sky130_fd_sc_hd__mux2_1
X_44_ _44_/A VGND VGND VPWR VPWR _44_/X sky130_fd_sc_hd__clkbuf_1
XANTENNA_input39_A chany_top_in[6] VGND VGND VPWR VPWR sky130_fd_sc_hd__diode_2
Xmux_right_ipin_12.mux_l2_in_2_ _71_/A _47_/A mux_right_ipin_12.mux_l2_in_3_/S VGND
+ VGND VPWR VPWR mux_right_ipin_12.mux_l2_in_2_/X sky130_fd_sc_hd__mux2_1
XFILLER_18_25 VGND VGND VPWR VPWR sky130_fd_sc_hd__fill_1
XANTENNA_mux_right_ipin_2.mux_l2_in_1__A0 _61_/A VGND VGND VPWR VPWR sky130_fd_sc_hd__diode_2
Xmux_right_ipin_3.mux_l1_in_1_ _36_/A repeater120/X mux_right_ipin_3.mux_l1_in_2_/S
+ VGND VGND VPWR VPWR mux_right_ipin_3.mux_l1_in_1_/X sky130_fd_sc_hd__mux2_1
Xhold13 hold13/A VGND VGND VPWR VPWR hold13/X sky130_fd_sc_hd__clkdlybuf4s25_1
Xhold24 hold24/A VGND VGND VPWR VPWR hold24/X sky130_fd_sc_hd__clkdlybuf4s25_1
XFILLER_10_81 VGND VGND VPWR VPWR sky130_fd_sc_hd__fill_1
XFILLER_15_15 VGND VGND VPWR VPWR sky130_fd_sc_hd__fill_1
Xoutput69 _66_/X VGND VGND VPWR VPWR chany_top_out[12] sky130_fd_sc_hd__buf_2
Xmux_right_ipin_8.mux_l2_in_0_ mux_right_ipin_8.mux_l1_in_1_/X mux_right_ipin_8.mux_l1_in_0_/X
+ mux_right_ipin_8.mux_l2_in_3_/S VGND VGND VPWR VPWR mux_right_ipin_8.mux_l2_in_0_/X
+ sky130_fd_sc_hd__mux2_1
Xoutput58 _36_/X VGND VGND VPWR VPWR chany_bottom_out[2] sky130_fd_sc_hd__buf_2
Xoutput47 _44_/X VGND VGND VPWR VPWR chany_bottom_out[10] sky130_fd_sc_hd__buf_2
XTAP_128 VGND VPWR sky130_fd_sc_hd__tapvpwrvgnd_1
XTAP_117 VGND VPWR sky130_fd_sc_hd__tapvpwrvgnd_1
XTAP_106 VGND VPWR sky130_fd_sc_hd__tapvpwrvgnd_1
XPHY_0 VGND VGND VPWR VPWR sky130_fd_sc_hd__decap_3
XFILLER_7_60 VGND VGND VPWR VPWR sky130_fd_sc_hd__fill_1
XANTENNA_input21_A chany_bottom_in[8] VGND VGND VPWR VPWR sky130_fd_sc_hd__diode_2
XANTENNA_mux_right_ipin_15.mux_l2_in_2__A1 _44_/A VGND VGND VPWR VPWR sky130_fd_sc_hd__diode_2
Xmux_right_ipin_8.mux_l1_in_1_ repeater108/X repeater117/X mux_right_ipin_8.mux_l1_in_2_/S
+ VGND VGND VPWR VPWR mux_right_ipin_8.mux_l1_in_1_/X sky130_fd_sc_hd__mux2_1
X_60_ _60_/A VGND VGND VPWR VPWR _60_/X sky130_fd_sc_hd__clkbuf_1
Xmux_right_ipin_12.mux_l3_in_0_ mux_right_ipin_12.mux_l2_in_1_/X mux_right_ipin_12.mux_l2_in_0_/X
+ mux_right_ipin_12.mux_l3_in_1_/S VGND VGND VPWR VPWR mux_right_ipin_12.mux_l3_in_0_/X
+ sky130_fd_sc_hd__mux2_1
XANTENNA__42__A _42_/A VGND VGND VPWR VPWR sky130_fd_sc_hd__diode_2
XFILLER_4_83 VGND VGND VPWR VPWR sky130_fd_sc_hd__fill_1
XANTENNA_mux_right_ipin_9.mux_l2_in_2__A0 _68_/A VGND VGND VPWR VPWR sky130_fd_sc_hd__diode_2
X_43_ _43_/A VGND VGND VPWR VPWR _43_/X sky130_fd_sc_hd__clkbuf_1
Xmux_right_ipin_12.mux_l2_in_1_ _67_/A mux_right_ipin_12.mux_l1_in_2_/X mux_right_ipin_12.mux_l2_in_3_/S
+ VGND VGND VPWR VPWR mux_right_ipin_12.mux_l2_in_1_/X sky130_fd_sc_hd__mux2_1
Xmux_right_ipin_3.mux_l1_in_0_ _34_/A repeater114/X mux_right_ipin_3.mux_l1_in_2_/S
+ VGND VGND VPWR VPWR mux_right_ipin_3.mux_l1_in_0_/X sky130_fd_sc_hd__mux2_1
XFILLER_27_3 VGND VGND VPWR VPWR sky130_fd_sc_hd__fill_1
Xhold25 hold25/A VGND VGND VPWR VPWR hold25/X sky130_fd_sc_hd__clkdlybuf4s25_1
Xhold14 hold14/A VGND VGND VPWR VPWR hold14/X sky130_fd_sc_hd__clkdlybuf4s25_1
XANTENNA_mux_right_ipin_0.mux_l2_in_3__A1 _51_/A VGND VGND VPWR VPWR sky130_fd_sc_hd__diode_2
Xclkbuf_1_0__f_prog_clk_0_W_in clkbuf_0_prog_clk_0_W_in/X VGND VGND VPWR VPWR prog_clk_0_S_FTB01/A
+ sky130_fd_sc_hd__clkbuf_16
Xmux_right_ipin_12.mux_l1_in_2_ _41_/A _61_/A mux_right_ipin_12.mux_l1_in_2_/S VGND
+ VGND VPWR VPWR mux_right_ipin_12.mux_l1_in_2_/X sky130_fd_sc_hd__mux2_1
XANTENNA_mux_right_ipin_10.mux_l2_in_2__A0 _69_/A VGND VGND VPWR VPWR sky130_fd_sc_hd__diode_2
Xoutput59 _37_/X VGND VGND VPWR VPWR chany_bottom_out[3] sky130_fd_sc_hd__buf_2
Xoutput48 _45_/X VGND VGND VPWR VPWR chany_bottom_out[11] sky130_fd_sc_hd__buf_2
XTAP_129 VGND VPWR sky130_fd_sc_hd__tapvpwrvgnd_1
XTAP_118 VGND VPWR sky130_fd_sc_hd__tapvpwrvgnd_1
XTAP_107 VGND VPWR sky130_fd_sc_hd__tapvpwrvgnd_1
XPHY_1 VGND VGND VPWR VPWR sky130_fd_sc_hd__decap_3
Xmux_right_ipin_5.mux_l2_in_3__124 VGND VGND VPWR VPWR mux_right_ipin_5.mux_l2_in_3_/A0
+ mux_right_ipin_5.mux_l2_in_3__124/LO sky130_fd_sc_hd__conb_1
Xrepeater120 input15/X VGND VGND VPWR VPWR repeater120/X sky130_fd_sc_hd__clkbuf_2
XFILLER_16_70 VGND VGND VPWR VPWR sky130_fd_sc_hd__decap_4
Xmem_right_ipin_0.sky130_fd_sc_hd__dfxtp_1_3_ mem_left_ipin_0.sky130_fd_sc_hd__dfxtp_1_3_/CLK
+ mux_right_ipin_0.mux_l3_in_1_/S VGND VGND VPWR VPWR hold14/A sky130_fd_sc_hd__dfxtp_1
XANTENNA_input14_A chany_bottom_in[1] VGND VGND VPWR VPWR sky130_fd_sc_hd__diode_2
Xclkbuf_3_3__f_logical_tile_io_mode_io__0.ltile_phy_iopad_0.EMBEDDED_IO_HD_sky130_fd_sc_hd__dfxtp_1_mem.prog_clk
+ clkbuf_0_logical_tile_io_mode_io__0.ltile_phy_iopad_0.EMBEDDED_IO_HD_sky130_fd_sc_hd__dfxtp_1_mem.prog_clk/X
+ VGND VGND VPWR VPWR mem_right_ipin_7.sky130_fd_sc_hd__dfxtp_1_1_/CLK sky130_fd_sc_hd__clkbuf_16
XANTENNA_input6_A chany_bottom_in[12] VGND VGND VPWR VPWR sky130_fd_sc_hd__diode_2
Xmux_right_ipin_8.mux_l1_in_0_ repeater112/X repeater121/X mux_right_ipin_8.mux_l1_in_2_/S
+ VGND VGND VPWR VPWR mux_right_ipin_8.mux_l1_in_0_/X sky130_fd_sc_hd__mux2_1
Xlogical_tile_io_mode_io__0.ltile_phy_iopad_0.EMBEDDED_IO_HD_0_.INV_SOC_DIR output86/A
+ VGND VGND VPWR VPWR logical_tile_io_mode_io__0.ltile_phy_iopad_0.EMBEDDED_IO_HD_0_.INV_SOC_DIR/Y
+ sky130_fd_sc_hd__inv_1
XANTENNA__53__A _53_/A VGND VGND VPWR VPWR sky130_fd_sc_hd__diode_2
X_42_ _42_/A VGND VGND VPWR VPWR _42_/X sky130_fd_sc_hd__clkbuf_1
Xmux_right_ipin_12.mux_l2_in_0_ mux_right_ipin_12.mux_l1_in_1_/X mux_right_ipin_12.mux_l1_in_0_/X
+ mux_right_ipin_12.mux_l2_in_3_/S VGND VGND VPWR VPWR mux_right_ipin_12.mux_l2_in_0_/X
+ sky130_fd_sc_hd__mux2_1
XANTENNA__48__A _48_/A VGND VGND VPWR VPWR sky130_fd_sc_hd__diode_2
Xmux_right_ipin_12.sky130_fd_sc_hd__buf_4_0_ mux_right_ipin_12.mux_l4_in_0_/X VGND
+ VGND VPWR VPWR output99/A sky130_fd_sc_hd__clkbuf_1
XANTENNA_input44_A left_width_0_height_0__pin_0_ VGND VGND VPWR VPWR sky130_fd_sc_hd__diode_2
Xhold15 hold15/A VGND VGND VPWR VPWR hold15/X sky130_fd_sc_hd__clkdlybuf4s25_1
XFILLER_19_124 VGND VGND VPWR VPWR sky130_fd_sc_hd__fill_1
Xmux_right_ipin_12.mux_l1_in_1_ repeater108/X repeater117/X mux_right_ipin_12.mux_l1_in_2_/S
+ VGND VGND VPWR VPWR mux_right_ipin_12.mux_l1_in_1_/X sky130_fd_sc_hd__mux2_1
Xmem_right_ipin_3.sky130_fd_sc_hd__dfxtp_1_3_ mem_left_ipin_0.sky130_fd_sc_hd__dfxtp_1_0_/CLK
+ mux_right_ipin_3.mux_l3_in_1_/S VGND VGND VPWR VPWR hold6/A sky130_fd_sc_hd__dfxtp_1
Xmux_right_ipin_4.sky130_fd_sc_hd__buf_4_0_ mux_right_ipin_4.mux_l4_in_0_/X VGND VGND
+ VPWR VPWR output91/A sky130_fd_sc_hd__clkbuf_1
XANTENNA_mux_right_ipin_10.mux_l2_in_2__A1 _41_/A VGND VGND VPWR VPWR sky130_fd_sc_hd__diode_2
Xoutput49 _46_/X VGND VGND VPWR VPWR chany_bottom_out[12] sky130_fd_sc_hd__buf_2
XTAP_119 VGND VPWR sky130_fd_sc_hd__tapvpwrvgnd_1
XTAP_108 VGND VPWR sky130_fd_sc_hd__tapvpwrvgnd_1
XANTENNA__61__A _61_/A VGND VGND VPWR VPWR sky130_fd_sc_hd__diode_2
XPHY_2 VGND VGND VPWR VPWR sky130_fd_sc_hd__decap_3
Xrepeater110 input35/X VGND VGND VPWR VPWR repeater110/X sky130_fd_sc_hd__dlymetal6s2s_1
Xrepeater121 input14/X VGND VGND VPWR VPWR repeater121/X sky130_fd_sc_hd__dlymetal6s2s_1
Xmem_right_ipin_0.sky130_fd_sc_hd__dfxtp_1_2_ mem_left_ipin_0.sky130_fd_sc_hd__dfxtp_1_3_/CLK
+ mux_right_ipin_0.mux_l2_in_3_/S VGND VGND VPWR VPWR mux_right_ipin_0.mux_l3_in_1_/S
+ sky130_fd_sc_hd__dfxtp_1
XANTENNA_mux_right_ipin_4.mux_l2_in_2__A0 _69_/A VGND VGND VPWR VPWR sky130_fd_sc_hd__diode_2
X_41_ _41_/A VGND VGND VPWR VPWR _41_/X sky130_fd_sc_hd__clkbuf_1
Xmem_right_ipin_6.sky130_fd_sc_hd__dfxtp_1_3_ mem_right_ipin_7.sky130_fd_sc_hd__dfxtp_1_1_/CLK
+ mux_right_ipin_6.mux_l3_in_1_/S VGND VGND VPWR VPWR hold11/A sky130_fd_sc_hd__dfxtp_1
XANTENNA__64__A _64_/A VGND VGND VPWR VPWR sky130_fd_sc_hd__diode_2
Xhold16 hold16/A VGND VGND VPWR VPWR hold16/X sky130_fd_sc_hd__clkdlybuf4s25_1
XANTENNA__59__A _59_/A VGND VGND VPWR VPWR sky130_fd_sc_hd__diode_2
XANTENNA_input37_A chany_top_in[4] VGND VGND VPWR VPWR sky130_fd_sc_hd__diode_2
Xmem_right_ipin_3.sky130_fd_sc_hd__dfxtp_1_2_ mem_left_ipin_0.sky130_fd_sc_hd__dfxtp_1_0_/CLK
+ mux_right_ipin_3.mux_l2_in_3_/S VGND VGND VPWR VPWR mux_right_ipin_3.mux_l3_in_1_/S
+ sky130_fd_sc_hd__dfxtp_1
Xmux_right_ipin_12.mux_l1_in_0_ repeater112/X repeater121/X mux_right_ipin_12.mux_l1_in_2_/S
+ VGND VGND VPWR VPWR mux_right_ipin_12.mux_l1_in_0_/X sky130_fd_sc_hd__mux2_1
XTAP_109 VGND VPWR sky130_fd_sc_hd__tapvpwrvgnd_1
XPHY_3 VGND VGND VPWR VPWR sky130_fd_sc_hd__decap_3
Xrepeater122 input14/X VGND VGND VPWR VPWR _55_/A sky130_fd_sc_hd__clkbuf_2
Xrepeater111 repeater112/X VGND VGND VPWR VPWR _35_/A sky130_fd_sc_hd__dlymetal6s2s_1
XANTENNA__72__A _72_/A VGND VGND VPWR VPWR sky130_fd_sc_hd__diode_2
XFILLER_16_83 VGND VGND VPWR VPWR sky130_fd_sc_hd__fill_1
Xmem_right_ipin_0.sky130_fd_sc_hd__dfxtp_1_1_ mem_right_ipin_7.sky130_fd_sc_hd__dfxtp_1_1_/CLK
+ mux_right_ipin_0.mux_l1_in_2_/S VGND VGND VPWR VPWR mux_right_ipin_0.mux_l2_in_3_/S
+ sky130_fd_sc_hd__dfxtp_1
Xmem_right_ipin_9.sky130_fd_sc_hd__dfxtp_1_3_ mem_right_ipin_9.sky130_fd_sc_hd__dfxtp_1_3_/CLK
+ mux_right_ipin_9.mux_l3_in_1_/S VGND VGND VPWR VPWR hold18/A sky130_fd_sc_hd__dfxtp_1
XANTENNA_mux_right_ipin_4.mux_l2_in_2__A1 _43_/A VGND VGND VPWR VPWR sky130_fd_sc_hd__diode_2
XFILLER_5_138 VGND VGND VPWR VPWR sky130_fd_sc_hd__fill_1
XANTENNA__67__A _67_/A VGND VGND VPWR VPWR sky130_fd_sc_hd__diode_2
XANTENNA_mux_right_ipin_14.mux_l2_in_1__A0 _65_/A VGND VGND VPWR VPWR sky130_fd_sc_hd__diode_2
Xmem_right_ipin_11.sky130_fd_sc_hd__dfxtp_1_3_ mem_right_ipin_9.sky130_fd_sc_hd__dfxtp_1_3_/CLK
+ mux_right_ipin_11.mux_l3_in_1_/S VGND VGND VPWR VPWR hold7/A sky130_fd_sc_hd__dfxtp_1
X_40_ _40_/A VGND VGND VPWR VPWR _40_/X sky130_fd_sc_hd__clkbuf_1
Xmem_right_ipin_6.sky130_fd_sc_hd__dfxtp_1_2_ mem_right_ipin_7.sky130_fd_sc_hd__dfxtp_1_1_/CLK
+ mux_right_ipin_6.mux_l2_in_3_/S VGND VGND VPWR VPWR mux_right_ipin_6.mux_l3_in_1_/S
+ sky130_fd_sc_hd__dfxtp_1
Xmux_right_ipin_4.mux_l2_in_3_ mux_right_ipin_4.mux_l2_in_3_/A0 _49_/A mux_right_ipin_4.mux_l2_in_3_/S
+ VGND VGND VPWR VPWR mux_right_ipin_4.mux_l2_in_3_/X sky130_fd_sc_hd__mux2_1
Xhold17 hold17/A VGND VGND VPWR VPWR hold17/X sky130_fd_sc_hd__clkdlybuf4s25_1
Xmem_right_ipin_3.sky130_fd_sc_hd__dfxtp_1_1_ mem_left_ipin_0.sky130_fd_sc_hd__dfxtp_1_0_/CLK
+ mux_right_ipin_3.mux_l1_in_2_/S VGND VGND VPWR VPWR mux_right_ipin_3.mux_l2_in_3_/S
+ sky130_fd_sc_hd__dfxtp_1
Xrepeater112 input34/X VGND VGND VPWR VPWR repeater112/X sky130_fd_sc_hd__clkbuf_1
Xmux_left_ipin_0.mux_l2_in_3__129 VGND VGND VPWR VPWR mux_left_ipin_0.mux_l2_in_3_/A0
+ mux_left_ipin_0.mux_l2_in_3__129/LO sky130_fd_sc_hd__conb_1
XPHY_4 VGND VGND VPWR VPWR sky130_fd_sc_hd__decap_3
Xmux_right_ipin_4.mux_l4_in_0_ mux_right_ipin_4.mux_l3_in_1_/X mux_right_ipin_4.mux_l3_in_0_/X
+ hold15/A VGND VGND VPWR VPWR mux_right_ipin_4.mux_l4_in_0_/X sky130_fd_sc_hd__mux2_1
Xmem_right_ipin_0.sky130_fd_sc_hd__dfxtp_1_0_ mem_left_ipin_0.sky130_fd_sc_hd__dfxtp_1_3_/CLK
+ hold21/X VGND VGND VPWR VPWR mux_right_ipin_0.mux_l1_in_2_/S sky130_fd_sc_hd__dfxtp_1
Xmem_right_ipin_14.sky130_fd_sc_hd__dfxtp_1_3_ mem_right_ipin_15.sky130_fd_sc_hd__dfxtp_1_3_/CLK
+ mux_right_ipin_14.mux_l3_in_1_/S VGND VGND VPWR VPWR hold16/A sky130_fd_sc_hd__dfxtp_1
Xmem_right_ipin_9.sky130_fd_sc_hd__dfxtp_1_2_ mem_right_ipin_9.sky130_fd_sc_hd__dfxtp_1_3_/CLK
+ mux_right_ipin_9.mux_l2_in_3_/S VGND VGND VPWR VPWR mux_right_ipin_9.mux_l3_in_1_/S
+ sky130_fd_sc_hd__dfxtp_1
Xmux_right_ipin_9.mux_l2_in_3_ mux_right_ipin_9.mux_l2_in_3_/A0 _48_/A mux_right_ipin_9.mux_l2_in_3_/S
+ VGND VGND VPWR VPWR mux_right_ipin_9.mux_l2_in_3_/X sky130_fd_sc_hd__mux2_1
XANTENNA_input12_A chany_bottom_in[18] VGND VGND VPWR VPWR sky130_fd_sc_hd__diode_2
Xmux_right_ipin_4.mux_l3_in_1_ mux_right_ipin_4.mux_l2_in_3_/X mux_right_ipin_4.mux_l2_in_2_/X
+ mux_right_ipin_4.mux_l3_in_1_/S VGND VGND VPWR VPWR mux_right_ipin_4.mux_l3_in_1_/X
+ sky130_fd_sc_hd__mux2_1
Xmem_right_ipin_11.sky130_fd_sc_hd__dfxtp_1_2_ mem_right_ipin_9.sky130_fd_sc_hd__dfxtp_1_3_/CLK
+ mux_right_ipin_11.mux_l2_in_3_/S VGND VGND VPWR VPWR mux_right_ipin_11.mux_l3_in_1_/S
+ sky130_fd_sc_hd__dfxtp_1
XANTENNA_mux_right_ipin_8.mux_l1_in_2__A0 _43_/A VGND VGND VPWR VPWR sky130_fd_sc_hd__diode_2
XANTENNA_input4_A chany_bottom_in[10] VGND VGND VPWR VPWR sky130_fd_sc_hd__diode_2
Xmem_right_ipin_6.sky130_fd_sc_hd__dfxtp_1_1_ mem_right_ipin_7.sky130_fd_sc_hd__dfxtp_1_1_/CLK
+ hold10/X VGND VGND VPWR VPWR mux_right_ipin_6.mux_l2_in_3_/S sky130_fd_sc_hd__dfxtp_1
XANTENNA_mux_right_ipin_12.mux_l2_in_3__A1 _51_/A VGND VGND VPWR VPWR sky130_fd_sc_hd__diode_2
Xmux_right_ipin_4.mux_l2_in_2_ _69_/A _43_/A mux_right_ipin_4.mux_l2_in_3_/S VGND
+ VGND VPWR VPWR mux_right_ipin_4.mux_l2_in_2_/X sky130_fd_sc_hd__mux2_1