* NGSPICE file created from grid_clb.ext - technology: sky130A

* Black-box entry subcircuit for sky130_fd_sc_hd__tapvpwrvgnd_1 abstract view
.subckt sky130_fd_sc_hd__tapvpwrvgnd_1 VGND VPWR
.ends

* Black-box entry subcircuit for sky130_fd_sc_hd__fill_1 abstract view
.subckt sky130_fd_sc_hd__fill_1 VGND VNB VPB VPWR
.ends

* Black-box entry subcircuit for sky130_fd_sc_hd__clkbuf_2 abstract view
.subckt sky130_fd_sc_hd__clkbuf_2 A VGND VNB VPB VPWR X
.ends

* Black-box entry subcircuit for sky130_fd_sc_hd__mux2_1 abstract view
.subckt sky130_fd_sc_hd__mux2_1 A0 A1 S VGND VNB VPB VPWR X
.ends

* Black-box entry subcircuit for sky130_fd_sc_hd__dfxtp_1 abstract view
.subckt sky130_fd_sc_hd__dfxtp_1 CLK D VGND VNB VPB VPWR Q
.ends

* Black-box entry subcircuit for sky130_fd_sc_hd__clkdlybuf4s25_1 abstract view
.subckt sky130_fd_sc_hd__clkdlybuf4s25_1 A VGND VNB VPB VPWR X
.ends

* Black-box entry subcircuit for sky130_fd_sc_hd__clkbuf_1 abstract view
.subckt sky130_fd_sc_hd__clkbuf_1 A VGND VNB VPB VPWR X
.ends

* Black-box entry subcircuit for sky130_fd_sc_hd__diode_2 abstract view
.subckt sky130_fd_sc_hd__diode_2 DIODE VGND VNB VPB VPWR
.ends

* Black-box entry subcircuit for sky130_fd_sc_hd__conb_1 abstract view
.subckt sky130_fd_sc_hd__conb_1 VGND VNB VPB VPWR HI LO
.ends

* Black-box entry subcircuit for sky130_fd_sc_hd__buf_2 abstract view
.subckt sky130_fd_sc_hd__buf_2 A VGND VNB VPB VPWR X
.ends

* Black-box entry subcircuit for sky130_fd_sc_hd__fill_2 abstract view
.subckt sky130_fd_sc_hd__fill_2 VGND VNB VPB VPWR
.ends

* Black-box entry subcircuit for sky130_fd_sc_hd__clkbuf_16 abstract view
.subckt sky130_fd_sc_hd__clkbuf_16 A VGND VNB VPB VPWR X
.ends

* Black-box entry subcircuit for sky130_fd_sc_hd__clkbuf_8 abstract view
.subckt sky130_fd_sc_hd__clkbuf_8 A VGND VNB VPB VPWR X
.ends

* Black-box entry subcircuit for sky130_fd_sc_hd__decap_6 abstract view
.subckt sky130_fd_sc_hd__decap_6 VGND VNB VPB VPWR
.ends

* Black-box entry subcircuit for sky130_ef_sc_hd__decap_12 abstract view
.subckt sky130_ef_sc_hd__decap_12 VGND VPWR VPB VNB
.ends

* Black-box entry subcircuit for sky130_fd_sc_hd__decap_4 abstract view
.subckt sky130_fd_sc_hd__decap_4 VGND VNB VPB VPWR
.ends

* Black-box entry subcircuit for sky130_fd_sc_hd__clkdlybuf4s50_1 abstract view
.subckt sky130_fd_sc_hd__clkdlybuf4s50_1 A VGND VNB VPB VPWR X
.ends

* Black-box entry subcircuit for sky130_fd_sc_hd__sdfxtp_1 abstract view
.subckt sky130_fd_sc_hd__sdfxtp_1 CLK D SCD SCE VGND VNB VPB VPWR Q
.ends

* Black-box entry subcircuit for sky130_fd_sc_hd__buf_8 abstract view
.subckt sky130_fd_sc_hd__buf_8 A VGND VNB VPB VPWR X
.ends

* Black-box entry subcircuit for sky130_fd_sc_hd__dlymetal6s2s_1 abstract view
.subckt sky130_fd_sc_hd__dlymetal6s2s_1 A VGND VNB VPB VPWR X
.ends

* Black-box entry subcircuit for sky130_fd_sc_hd__decap_3 abstract view
.subckt sky130_fd_sc_hd__decap_3 VGND VNB VPB VPWR
.ends

* Black-box entry subcircuit for sky130_fd_sc_hd__buf_4 abstract view
.subckt sky130_fd_sc_hd__buf_4 A VGND VNB VPB VPWR X
.ends

* Black-box entry subcircuit for sky130_fd_sc_hd__decap_8 abstract view
.subckt sky130_fd_sc_hd__decap_8 VGND VNB VPB VPWR
.ends

* Black-box entry subcircuit for sky130_fd_sc_hd__sdfxtp_2 abstract view
.subckt sky130_fd_sc_hd__sdfxtp_2 CLK D SCD SCE VGND VNB VPB VPWR Q
.ends

* Black-box entry subcircuit for sky130_fd_sc_hd__mux2_2 abstract view
.subckt sky130_fd_sc_hd__mux2_2 A0 A1 S VGND VNB VPB VPWR X
.ends

* Black-box entry subcircuit for sky130_fd_sc_hd__or2_1 abstract view
.subckt sky130_fd_sc_hd__or2_1 A B VGND VNB VPB VPWR X
.ends

* Black-box entry subcircuit for sky130_fd_sc_hd__buf_6 abstract view
.subckt sky130_fd_sc_hd__buf_6 A VGND VNB VPB VPWR X
.ends

.subckt grid_clb SC_IN_TOP SC_OUT_BOT SC_OUT_TOP Test_en_E_in Test_en_E_out Test_en_W_in
+ Test_en_W_out VGND VPWR bottom_width_0_height_0__pin_50_ bottom_width_0_height_0__pin_51_
+ ccff_head ccff_tail clk_0_N_in clk_0_S_in prog_clk_0_E_out prog_clk_0_N_in prog_clk_0_N_out
+ prog_clk_0_S_in prog_clk_0_S_out prog_clk_0_W_out right_width_0_height_0__pin_16_
+ right_width_0_height_0__pin_17_ right_width_0_height_0__pin_18_ right_width_0_height_0__pin_19_
+ right_width_0_height_0__pin_20_ right_width_0_height_0__pin_21_ right_width_0_height_0__pin_22_
+ right_width_0_height_0__pin_23_ right_width_0_height_0__pin_24_ right_width_0_height_0__pin_25_
+ right_width_0_height_0__pin_26_ right_width_0_height_0__pin_27_ right_width_0_height_0__pin_28_
+ right_width_0_height_0__pin_29_ right_width_0_height_0__pin_30_ right_width_0_height_0__pin_31_
+ right_width_0_height_0__pin_42_lower right_width_0_height_0__pin_42_upper right_width_0_height_0__pin_43_lower
+ right_width_0_height_0__pin_43_upper right_width_0_height_0__pin_44_lower right_width_0_height_0__pin_44_upper
+ right_width_0_height_0__pin_45_lower right_width_0_height_0__pin_45_upper right_width_0_height_0__pin_46_lower
+ right_width_0_height_0__pin_46_upper right_width_0_height_0__pin_47_lower right_width_0_height_0__pin_47_upper
+ right_width_0_height_0__pin_48_lower right_width_0_height_0__pin_48_upper right_width_0_height_0__pin_49_lower
+ right_width_0_height_0__pin_49_upper top_width_0_height_0__pin_0_ top_width_0_height_0__pin_10_
+ top_width_0_height_0__pin_11_ top_width_0_height_0__pin_12_ top_width_0_height_0__pin_13_
+ top_width_0_height_0__pin_14_ top_width_0_height_0__pin_15_ top_width_0_height_0__pin_1_
+ top_width_0_height_0__pin_2_ top_width_0_height_0__pin_32_ top_width_0_height_0__pin_33_
+ top_width_0_height_0__pin_34_lower top_width_0_height_0__pin_34_upper top_width_0_height_0__pin_35_lower
+ top_width_0_height_0__pin_35_upper top_width_0_height_0__pin_36_lower top_width_0_height_0__pin_36_upper
+ top_width_0_height_0__pin_37_lower top_width_0_height_0__pin_37_upper top_width_0_height_0__pin_38_lower
+ top_width_0_height_0__pin_38_upper top_width_0_height_0__pin_39_lower top_width_0_height_0__pin_39_upper
+ top_width_0_height_0__pin_3_ top_width_0_height_0__pin_40_lower top_width_0_height_0__pin_40_upper
+ top_width_0_height_0__pin_41_lower top_width_0_height_0__pin_41_upper top_width_0_height_0__pin_4_
+ top_width_0_height_0__pin_5_ top_width_0_height_0__pin_6_ top_width_0_height_0__pin_7_
+ top_width_0_height_0__pin_8_ top_width_0_height_0__pin_9_
XTAP_199 VGND VPWR sky130_fd_sc_hd__tapvpwrvgnd_1
XTAP_188 VGND VPWR sky130_fd_sc_hd__tapvpwrvgnd_1
XTAP_177 VGND VPWR sky130_fd_sc_hd__tapvpwrvgnd_1
XFILLER_22_111 VGND VGND VPWR VPWR sky130_fd_sc_hd__fill_1
Xrepeater93 repeater93/A VGND VGND VPWR VPWR repeater93/X sky130_fd_sc_hd__clkbuf_2
Xltile_clb_mode__0.ltile_fle_3.ltile_phy_fabric_0.ltile_frac_logic_0.ltile_frac_lut4_0.frac_lut4_0_.frac_lut4_mux_0_.mux_l1_in_0_
+ hold60/A hold100/A repeater89/A VGND VGND VPWR VPWR ltile_clb_mode__0.ltile_fle_3.ltile_phy_fabric_0.ltile_frac_logic_0.ltile_frac_lut4_0.frac_lut4_0_.frac_lut4_mux_0_.mux_l1_in_0_/X
+ sky130_fd_sc_hd__mux2_1
Xrepeater82 repeater83/X VGND VGND VPWR VPWR repeater82/X sky130_fd_sc_hd__clkbuf_2
Xltile_clb_mode__0.ltile_fle_0.ltile_phy_fabric_0.ltile_frac_logic_0.ltile_frac_lut4_0.frac_lut4_sky130_fd_sc_hd__dfxtp_1_mem.sky130_fd_sc_hd__dfxtp_1_13_
+ clkbuf_4_1_0_ltile_clb_mode__0.ltile_fle_0.ltile_phy_fabric_0.ltile_frac_logic_0.ltile_frac_lut4_0.frac_lut4_sky130_fd_sc_hd__dfxtp_1_mem.prog_clk/X
+ hold137/X VGND VGND VPWR VPWR hold111/A sky130_fd_sc_hd__dfxtp_1
Xhold181 hold181/A VGND VGND VPWR VPWR hold181/X sky130_fd_sc_hd__clkdlybuf4s25_1
Xhold192 hold192/A VGND VGND VPWR VPWR hold192/X sky130_fd_sc_hd__clkdlybuf4s25_1
Xhold170 hold170/A VGND VGND VPWR VPWR hold170/X sky130_fd_sc_hd__clkdlybuf4s25_1
X_66_ _66_/A VGND VGND VPWR VPWR _66_/X sky130_fd_sc_hd__clkbuf_1
XFILLER_9_22 VGND VGND VPWR VPWR sky130_fd_sc_hd__fill_1
Xltile_clb_mode__0.ltile_fle_4.ltile_phy_fabric_0.mux_ff_0_D_0.mux_l2_in_0_ ltile_clb_mode__0.ltile_fle_4.ltile_phy_fabric_0.mux_ff_0_D_0.mux_l2_in_0_/A0
+ ltile_clb_mode__0.ltile_fle_4.ltile_phy_fabric_0.mux_ff_0_D_0.mux_l1_in_0_/X hold32/A
+ VGND VGND VPWR VPWR ltile_clb_mode__0.ltile_fle_4.ltile_phy_fabric_0.mux_ff_0_D_0.mux_l2_in_0_/X
+ sky130_fd_sc_hd__mux2_1
XFILLER_34_96 VGND VGND VPWR VPWR sky130_fd_sc_hd__fill_1
Xhold41 hold41/A VGND VGND VPWR VPWR hold41/X sky130_fd_sc_hd__clkdlybuf4s25_1
Xhold85 hold85/A VGND VGND VPWR VPWR hold85/X sky130_fd_sc_hd__clkdlybuf4s25_1
XANTENNA_input18_A right_width_0_height_0__pin_29_ VGND VGND VPWR VPWR sky130_fd_sc_hd__diode_2
Xhold96 hold96/A VGND VGND VPWR VPWR hold96/X sky130_fd_sc_hd__clkdlybuf4s25_1
Xhold30 hold30/A VGND VGND VPWR VPWR hold30/X sky130_fd_sc_hd__clkdlybuf4s25_1
Xhold52 hold52/A VGND VGND VPWR VPWR hold52/X sky130_fd_sc_hd__clkdlybuf4s25_1
Xltile_clb_mode__0.ltile_fle_7.ltile_phy_fabric_0.ltile_frac_logic_0.ltile_frac_lut4_0.frac_lut4_sky130_fd_sc_hd__dfxtp_1_mem.sky130_fd_sc_hd__dfxtp_1_1_
+ ltile_clb_mode__0.ltile_fle_7.ltile_phy_fabric_0.mem_fabric_out_1.sky130_fd_sc_hd__dfxtp_1_0_/CLK
+ hold161/X VGND VGND VPWR VPWR hold44/A sky130_fd_sc_hd__dfxtp_1
Xhold63 hold63/A VGND VGND VPWR VPWR hold63/X sky130_fd_sc_hd__clkdlybuf4s25_1
Xhold74 hold74/A VGND VGND VPWR VPWR hold74/X sky130_fd_sc_hd__clkdlybuf4s25_1
Xltile_clb_mode__0.ltile_fle_0.ltile_phy_fabric_0.ltile_frac_logic_0.ltile_frac_lut4_0.frac_lut4_sky130_fd_sc_hd__dfxtp_1_mem.sky130_fd_sc_hd__dfxtp_1_7_
+ ltile_clb_mode__0.ltile_fle_5.ltile_phy_fabric_0.mem_ff_0_D_0.sky130_fd_sc_hd__dfxtp_1_1_/CLK
+ hold8/X VGND VGND VPWR VPWR hold26/A sky130_fd_sc_hd__dfxtp_1
Xltile_clb_mode__0.ltile_fle_4.ltile_phy_fabric_0.mux_fabric_out_1.mux_l2_in_0__113
+ VGND VGND VPWR VPWR ltile_clb_mode__0.ltile_fle_4.ltile_phy_fabric_0.mux_fabric_out_1.mux_l2_in_0_/A0
+ ltile_clb_mode__0.ltile_fle_4.ltile_phy_fabric_0.mux_fabric_out_1.mux_l2_in_0__113/LO
+ sky130_fd_sc_hd__conb_1
Xoutput75 _80_/X VGND VGND VPWR VPWR top_width_0_height_0__pin_39_upper sky130_fd_sc_hd__buf_2
Xoutput64 _75_/A VGND VGND VPWR VPWR top_width_0_height_0__pin_34_lower sky130_fd_sc_hd__buf_2
Xoutput53 _69_/X VGND VGND VPWR VPWR right_width_0_height_0__pin_44_upper sky130_fd_sc_hd__buf_2
Xltile_clb_mode__0.ltile_fle_6.ltile_phy_fabric_0.ltile_frac_logic_0.ltile_frac_lut4_0.frac_lut4_0_.frac_lut4_mux_0_.mux_l1_in_6_
+ hold48/A hold101/A repeater83/X VGND VGND VPWR VPWR ltile_clb_mode__0.ltile_fle_6.ltile_phy_fabric_0.ltile_frac_logic_0.ltile_frac_lut4_0.frac_lut4_0_.frac_lut4_mux_0_.mux_l1_in_6_/X
+ sky130_fd_sc_hd__mux2_1
XFILLER_16_120 VGND VGND VPWR VPWR sky130_fd_sc_hd__fill_2
Xoutput42 _66_/X VGND VGND VPWR VPWR bottom_width_0_height_0__pin_50_ sky130_fd_sc_hd__buf_2
XTAP_189 VGND VPWR sky130_fd_sc_hd__tapvpwrvgnd_1
XTAP_178 VGND VPWR sky130_fd_sc_hd__tapvpwrvgnd_1
XTAP_167 VGND VPWR sky130_fd_sc_hd__tapvpwrvgnd_1
XTAP_156 VGND VPWR sky130_fd_sc_hd__tapvpwrvgnd_1
XTAP_145 VGND VPWR sky130_fd_sc_hd__tapvpwrvgnd_1
XTAP_134 VGND VPWR sky130_fd_sc_hd__tapvpwrvgnd_1
XTAP_123 VGND VPWR sky130_fd_sc_hd__tapvpwrvgnd_1
XTAP_101 VGND VPWR sky130_fd_sc_hd__tapvpwrvgnd_1
XTAP_112 VGND VPWR sky130_fd_sc_hd__tapvpwrvgnd_1
XFILLER_3_57 VGND VGND VPWR VPWR sky130_fd_sc_hd__fill_2
XFILLER_3_68 VGND VGND VPWR VPWR sky130_fd_sc_hd__fill_1
X_82_ _82_/A VGND VGND VPWR VPWR _82_/X sky130_fd_sc_hd__clkbuf_1
Xrepeater83 repeater83/A VGND VGND VPWR VPWR repeater83/X sky130_fd_sc_hd__clkbuf_2
Xrepeater94 repeater95/X VGND VGND VPWR VPWR repeater94/X sky130_fd_sc_hd__clkbuf_2
Xltile_clb_mode__0.ltile_fle_0.ltile_phy_fabric_0.ltile_frac_logic_0.ltile_frac_lut4_0.frac_lut4_sky130_fd_sc_hd__dfxtp_1_mem.sky130_fd_sc_hd__dfxtp_1_12_
+ clkbuf_4_1_0_ltile_clb_mode__0.ltile_fle_0.ltile_phy_fabric_0.ltile_frac_logic_0.ltile_frac_lut4_0.frac_lut4_sky130_fd_sc_hd__dfxtp_1_mem.prog_clk/X
+ hold123/X VGND VGND VPWR VPWR hold137/A sky130_fd_sc_hd__dfxtp_1
XFILLER_8_182 VGND VGND VPWR VPWR sky130_fd_sc_hd__fill_1
Xhold160 hold160/A VGND VGND VPWR VPWR hold160/X sky130_fd_sc_hd__clkdlybuf4s25_1
XFILLER_33_207 VGND VGND VPWR VPWR sky130_fd_sc_hd__fill_1
Xhold193 hold193/A VGND VGND VPWR VPWR hold193/X sky130_fd_sc_hd__clkdlybuf4s25_1
Xhold182 hold182/A VGND VGND VPWR VPWR hold182/X sky130_fd_sc_hd__clkdlybuf4s25_1
Xhold171 hold171/A VGND VGND VPWR VPWR hold171/X sky130_fd_sc_hd__clkdlybuf4s25_1
XANTENNA_ltile_clb_mode__0.ltile_fle_4.ltile_phy_fabric_0.mux_fabric_out_1.mux_l1_in_0__S
+ hold178/A VGND VGND VPWR VPWR sky130_fd_sc_hd__diode_2
X_65_ _66_/A VGND VGND VPWR VPWR _65_/X sky130_fd_sc_hd__clkbuf_1
Xltile_clb_mode__0.ltile_fle_3.ltile_phy_fabric_0.mem_fabric_out_0.sky130_fd_sc_hd__dfxtp_1_1_
+ ltile_clb_mode__0.ltile_fle_3.ltile_phy_fabric_0.mem_ff_0_D_0.sky130_fd_sc_hd__dfxtp_1_1_/CLK
+ hold175/X VGND VGND VPWR VPWR hold190/A sky130_fd_sc_hd__dfxtp_1
XFILLER_15_207 VGND VGND VPWR VPWR sky130_fd_sc_hd__fill_1
Xltile_clb_mode__0.ltile_fle_6.ltile_phy_fabric_0.ltile_frac_logic_0.mux_frac_logic_out_0.mux_l2_in_0_
+ ltile_clb_mode__0.ltile_fle_6.ltile_phy_fabric_0.ltile_frac_logic_0.mux_frac_logic_out_0.mux_l2_in_0_/A0
+ ltile_clb_mode__0.ltile_fle_6.ltile_phy_fabric_0.ltile_frac_logic_0.mux_frac_logic_out_0.mux_l1_in_0_/X
+ hold84/A VGND VGND VPWR VPWR ltile_clb_mode__0.ltile_fle_6.ltile_phy_fabric_0.mux_ff_0_D_0.mux_l1_in_0_/A1
+ sky130_fd_sc_hd__mux2_1
Xltile_clb_mode__0.ltile_fle_3.ltile_phy_fabric_0.mux_fabric_out_1.mux_l2_in_0_ ltile_clb_mode__0.ltile_fle_3.ltile_phy_fabric_0.mux_fabric_out_1.mux_l2_in_0_/A0
+ ltile_clb_mode__0.ltile_fle_3.ltile_phy_fabric_0.mux_fabric_out_1.mux_l1_in_0_/X
+ hold184/A VGND VGND VPWR VPWR _81_/A sky130_fd_sc_hd__mux2_1
Xltile_clb_mode__0.ltile_fle_6.ltile_phy_fabric_0.mux_fabric_out_1.mux_l2_in_0__121
+ VGND VGND VPWR VPWR ltile_clb_mode__0.ltile_fle_6.ltile_phy_fabric_0.mux_fabric_out_1.mux_l2_in_0_/A0
+ ltile_clb_mode__0.ltile_fle_6.ltile_phy_fabric_0.mux_fabric_out_1.mux_l2_in_0__121/LO
+ sky130_fd_sc_hd__conb_1
Xhold75 hold75/A VGND VGND VPWR VPWR hold75/X sky130_fd_sc_hd__clkdlybuf4s25_1
Xhold64 hold64/A VGND VGND VPWR VPWR hold64/X sky130_fd_sc_hd__clkdlybuf4s25_1
Xhold53 hold53/A VGND VGND VPWR VPWR hold53/X sky130_fd_sc_hd__clkdlybuf4s25_1
Xltile_clb_mode__0.ltile_fle_7.ltile_phy_fabric_0.ltile_frac_logic_0.ltile_frac_lut4_0.frac_lut4_sky130_fd_sc_hd__dfxtp_1_mem.sky130_fd_sc_hd__dfxtp_1_0_
+ ltile_clb_mode__0.ltile_fle_7.ltile_phy_fabric_0.mem_fabric_out_1.sky130_fd_sc_hd__dfxtp_1_0_/CLK
+ hold21/X VGND VGND VPWR VPWR hold161/A sky130_fd_sc_hd__dfxtp_1
Xhold31 hold31/A VGND VGND VPWR VPWR hold31/X sky130_fd_sc_hd__clkdlybuf4s25_1
Xhold86 hold86/A VGND VGND VPWR VPWR hold86/X sky130_fd_sc_hd__clkdlybuf4s25_1
Xhold97 hold97/A VGND VGND VPWR VPWR hold97/X sky130_fd_sc_hd__clkdlybuf4s25_1
Xhold42 hold42/A VGND VGND VPWR VPWR hold42/X sky130_fd_sc_hd__clkdlybuf4s25_1
Xhold20 hold20/A VGND VGND VPWR VPWR hold20/X sky130_fd_sc_hd__clkdlybuf4s25_1
XFILLER_6_79 VGND VGND VPWR VPWR sky130_fd_sc_hd__fill_2
Xltile_clb_mode__0.ltile_fle_0.ltile_phy_fabric_0.ltile_frac_logic_0.ltile_frac_lut4_0.frac_lut4_sky130_fd_sc_hd__dfxtp_1_mem.sky130_fd_sc_hd__dfxtp_1_6_
+ clkbuf_4_0_0_ltile_clb_mode__0.ltile_fle_0.ltile_phy_fabric_0.ltile_frac_logic_0.ltile_frac_lut4_0.frac_lut4_sky130_fd_sc_hd__dfxtp_1_mem.prog_clk/X
+ hold40/X VGND VGND VPWR VPWR hold8/A sky130_fd_sc_hd__dfxtp_1
Xltile_clb_mode__0.ltile_fle_4.ltile_phy_fabric_0.mux_ff_0_D_0.mux_l1_in_0_ ltile_clb_mode__0.ltile_fle_4.ltile_phy_fabric_0.mux_ff_0_D_0.mux_l1_in_0_/A0
+ ltile_clb_mode__0.ltile_fle_4.ltile_phy_fabric_0.mux_ff_0_D_0.mux_l1_in_0_/A1 hold171/A
+ VGND VGND VPWR VPWR ltile_clb_mode__0.ltile_fle_4.ltile_phy_fabric_0.mux_ff_0_D_0.mux_l1_in_0_/X
+ sky130_fd_sc_hd__mux2_1
Xclkbuf_0_prog_clk_0_N_in prog_clk_0_N_in VGND VGND VPWR VPWR clkbuf_0_prog_clk_0_N_in/X
+ sky130_fd_sc_hd__clkbuf_16
Xoutput65 _75_/X VGND VGND VPWR VPWR top_width_0_height_0__pin_34_upper sky130_fd_sc_hd__buf_2
Xoutput76 _81_/A VGND VGND VPWR VPWR top_width_0_height_0__pin_40_lower sky130_fd_sc_hd__buf_2
XFILLER_31_135 VGND VGND VPWR VPWR sky130_fd_sc_hd__fill_1
XANTENNA_input30_A top_width_0_height_0__pin_32_ VGND VGND VPWR VPWR sky130_fd_sc_hd__diode_2
Xoutput54 _70_/A VGND VGND VPWR VPWR right_width_0_height_0__pin_45_lower sky130_fd_sc_hd__buf_2
Xoutput43 output43/A VGND VGND VPWR VPWR ccff_tail sky130_fd_sc_hd__buf_2
XTAP_179 VGND VPWR sky130_fd_sc_hd__tapvpwrvgnd_1
Xltile_clb_mode__0.ltile_fle_2.ltile_phy_fabric_0.ltile_frac_logic_0.mux_frac_logic_out_0.mux_l2_in_0_
+ ltile_clb_mode__0.ltile_fle_2.ltile_phy_fabric_0.ltile_frac_logic_0.mux_frac_logic_out_0.mux_l2_in_0_/A0
+ ltile_clb_mode__0.ltile_fle_2.ltile_phy_fabric_0.ltile_frac_logic_0.mux_frac_logic_out_0.mux_l1_in_0_/X
+ hold163/A VGND VGND VPWR VPWR ltile_clb_mode__0.ltile_fle_2.ltile_phy_fabric_0.mux_ff_0_D_0.mux_l1_in_0_/A1
+ sky130_fd_sc_hd__mux2_1
Xclkbuf_4_4_0_ltile_clb_mode__0.ltile_fle_0.ltile_phy_fabric_0.ltile_frac_logic_0.ltile_frac_lut4_0.frac_lut4_sky130_fd_sc_hd__dfxtp_1_mem.prog_clk
+ clkbuf_0_ltile_clb_mode__0.ltile_fle_0.ltile_phy_fabric_0.ltile_frac_logic_0.ltile_frac_lut4_0.frac_lut4_sky130_fd_sc_hd__dfxtp_1_mem.prog_clk/X
+ VGND VGND VPWR VPWR ltile_clb_mode__0.ltile_fle_0.ltile_phy_fabric_0.mem_fabric_out_1.sky130_fd_sc_hd__dfxtp_1_0_/CLK
+ sky130_fd_sc_hd__clkbuf_8
XTAP_168 VGND VPWR sky130_fd_sc_hd__tapvpwrvgnd_1
XTAP_157 VGND VPWR sky130_fd_sc_hd__tapvpwrvgnd_1
Xltile_clb_mode__0.ltile_fle_6.ltile_phy_fabric_0.ltile_frac_logic_0.ltile_frac_lut4_0.frac_lut4_0_.frac_lut4_mux_0_.mux_l1_in_5_
+ hold10/A hold99/A repeater83/X VGND VGND VPWR VPWR ltile_clb_mode__0.ltile_fle_6.ltile_phy_fabric_0.ltile_frac_logic_0.ltile_frac_lut4_0.frac_lut4_0_.frac_lut4_mux_0_.mux_l1_in_5_/X
+ sky130_fd_sc_hd__mux2_1
XTAP_146 VGND VPWR sky130_fd_sc_hd__tapvpwrvgnd_1
XTAP_135 VGND VPWR sky130_fd_sc_hd__tapvpwrvgnd_1
XTAP_124 VGND VPWR sky130_fd_sc_hd__tapvpwrvgnd_1
XTAP_102 VGND VPWR sky130_fd_sc_hd__tapvpwrvgnd_1
XTAP_113 VGND VPWR sky130_fd_sc_hd__tapvpwrvgnd_1
XFILLER_13_113 VGND VGND VPWR VPWR sky130_fd_sc_hd__decap_6
X_81_ _81_/A VGND VGND VPWR VPWR _81_/X sky130_fd_sc_hd__clkbuf_1
Xrepeater95 repeater95/A VGND VGND VPWR VPWR repeater95/X sky130_fd_sc_hd__clkbuf_1
Xrepeater84 repeater85/X VGND VGND VPWR VPWR repeater84/X sky130_fd_sc_hd__clkbuf_2
Xhold172 hold172/A VGND VGND VPWR VPWR hold172/X sky130_fd_sc_hd__clkdlybuf4s25_1
Xhold161 hold161/A VGND VGND VPWR VPWR hold161/X sky130_fd_sc_hd__clkdlybuf4s25_1
Xltile_clb_mode__0.ltile_fle_0.ltile_phy_fabric_0.ltile_frac_logic_0.ltile_frac_lut4_0.frac_lut4_sky130_fd_sc_hd__dfxtp_1_mem.sky130_fd_sc_hd__dfxtp_1_11_
+ clkbuf_4_1_0_ltile_clb_mode__0.ltile_fle_0.ltile_phy_fabric_0.ltile_frac_logic_0.ltile_frac_lut4_0.frac_lut4_sky130_fd_sc_hd__dfxtp_1_mem.prog_clk/X
+ hold66/X VGND VGND VPWR VPWR hold123/A sky130_fd_sc_hd__dfxtp_1
Xhold183 hold183/A VGND VGND VPWR VPWR hold183/X sky130_fd_sc_hd__clkdlybuf4s25_1
Xhold150 hold150/A VGND VGND VPWR VPWR hold150/X sky130_fd_sc_hd__clkdlybuf4s25_1
Xhold194 hold194/A VGND VGND VPWR VPWR hold194/X sky130_fd_sc_hd__clkdlybuf4s25_1
Xltile_clb_mode__0.ltile_fle_3.ltile_phy_fabric_0.mem_fabric_out_0.sky130_fd_sc_hd__dfxtp_1_0_
+ ltile_clb_mode__0.ltile_fle_3.ltile_phy_fabric_0.mem_ff_0_D_0.sky130_fd_sc_hd__dfxtp_1_1_/CLK
+ hold13/X VGND VGND VPWR VPWR hold175/A sky130_fd_sc_hd__dfxtp_1
XFILLER_23_55 VGND VGND VPWR VPWR sky130_fd_sc_hd__fill_1
XFILLER_3_3 VGND VPWR VPWR VGND sky130_ef_sc_hd__decap_12
XFILLER_9_57 VGND VGND VPWR VPWR sky130_fd_sc_hd__fill_1
XFILLER_18_88 VGND VGND VPWR VPWR sky130_fd_sc_hd__fill_2
XFILLER_18_77 VGND VGND VPWR VPWR sky130_fd_sc_hd__decap_4
Xltile_clb_mode__0.ltile_fle_6.ltile_phy_fabric_0.ltile_frac_logic_0.ltile_frac_lut4_0.frac_lut4_0_.frac_lut4_mux_0_.mux_l2_in_3_
+ ltile_clb_mode__0.ltile_fle_6.ltile_phy_fabric_0.ltile_frac_logic_0.ltile_frac_lut4_0.frac_lut4_0_.frac_lut4_mux_0_.mux_l1_in_7_/X
+ ltile_clb_mode__0.ltile_fle_6.ltile_phy_fabric_0.ltile_frac_logic_0.ltile_frac_lut4_0.frac_lut4_0_.frac_lut4_mux_0_.mux_l1_in_6_/X
+ ltile_clb_mode__0.ltile_fle_6.ltile_phy_fabric_0.ltile_frac_logic_0.ltile_frac_lut4_0.frac_lut4_0_.sky130_fd_sc_hd__buf_2_1_/X
+ VGND VGND VPWR VPWR ltile_clb_mode__0.ltile_fle_6.ltile_phy_fabric_0.ltile_frac_logic_0.ltile_frac_lut4_0.frac_lut4_0_.frac_lut4_mux_0_.mux_l2_in_3_/X
+ sky130_fd_sc_hd__mux2_1
Xhold43 hold43/A VGND VGND VPWR VPWR hold43/X sky130_fd_sc_hd__clkdlybuf4s25_1
XFILLER_29_65 VGND VGND VPWR VPWR sky130_fd_sc_hd__fill_2
Xltile_clb_mode__0.ltile_fle_6.ltile_phy_fabric_0.ltile_frac_logic_0.mux_frac_logic_out_0.mux_l1_in_0_
+ ltile_clb_mode__0.ltile_fle_6.ltile_phy_fabric_0.ltile_frac_logic_0.mux_frac_logic_out_0.mux_l1_in_0_/A0
+ ltile_clb_mode__0.ltile_fle_6.ltile_phy_fabric_0.ltile_frac_logic_0.mux_frac_logic_out_0.mux_l1_in_0_/A1
+ hold24/A VGND VGND VPWR VPWR ltile_clb_mode__0.ltile_fle_6.ltile_phy_fabric_0.ltile_frac_logic_0.mux_frac_logic_out_0.mux_l1_in_0_/X
+ sky130_fd_sc_hd__mux2_1
Xhold10 hold10/A VGND VGND VPWR VPWR hold10/X sky130_fd_sc_hd__clkdlybuf4s25_1
Xhold65 hold65/A VGND VGND VPWR VPWR hold65/X sky130_fd_sc_hd__clkdlybuf4s25_1
Xhold21 hold21/A VGND VGND VPWR VPWR hold21/X sky130_fd_sc_hd__clkdlybuf4s25_1
Xhold87 hold87/A VGND VGND VPWR VPWR hold87/X sky130_fd_sc_hd__clkdlybuf4s25_1
Xhold76 hold76/A VGND VGND VPWR VPWR hold76/X sky130_fd_sc_hd__clkdlybuf4s25_1
Xhold32 hold32/A VGND VGND VPWR VPWR hold32/X sky130_fd_sc_hd__clkdlybuf4s50_1
Xltile_clb_mode__0.ltile_fle_0.ltile_phy_fabric_0.ltile_frac_logic_0.ltile_frac_lut4_0.frac_lut4_sky130_fd_sc_hd__dfxtp_1_mem.sky130_fd_sc_hd__dfxtp_1_5_
+ clkbuf_4_0_0_ltile_clb_mode__0.ltile_fle_0.ltile_phy_fabric_0.ltile_frac_logic_0.ltile_frac_lut4_0.frac_lut4_sky130_fd_sc_hd__dfxtp_1_mem.prog_clk/X
+ hold80/X VGND VGND VPWR VPWR hold40/A sky130_fd_sc_hd__dfxtp_1
Xhold54 hold54/A VGND VGND VPWR VPWR hold54/X sky130_fd_sc_hd__clkdlybuf4s25_1
Xhold98 hold98/A VGND VGND VPWR VPWR hold98/X sky130_fd_sc_hd__clkdlybuf4s25_1
Xltile_clb_mode__0.ltile_fle_3.ltile_phy_fabric_0.mux_fabric_out_1.mux_l1_in_0_ ltile_clb_mode__0.ltile_fle_3.ltile_phy_fabric_0.mux_fabric_out_1.mux_l1_in_0_/A0
+ ltile_clb_mode__0.ltile_fle_4.ltile_phy_fabric_0.mux_ff_0_D_0.mux_l1_in_0_/A0 hold189/A
+ VGND VGND VPWR VPWR ltile_clb_mode__0.ltile_fle_3.ltile_phy_fabric_0.mux_fabric_out_1.mux_l1_in_0_/X
+ sky130_fd_sc_hd__mux2_1
Xltile_clb_mode__0.ltile_fle_5.ltile_phy_fabric_0.mux_ff_0_D_0.mux_l2_in_0__118 VGND
+ VGND VPWR VPWR ltile_clb_mode__0.ltile_fle_5.ltile_phy_fabric_0.mux_ff_0_D_0.mux_l2_in_0_/A0
+ ltile_clb_mode__0.ltile_fle_5.ltile_phy_fabric_0.mux_ff_0_D_0.mux_l2_in_0__118/LO
+ sky130_fd_sc_hd__conb_1
Xoutput66 _76_/A VGND VGND VPWR VPWR top_width_0_height_0__pin_35_lower sky130_fd_sc_hd__buf_2
XANTENNA_input23_A top_width_0_height_0__pin_11_ VGND VGND VPWR VPWR sky130_fd_sc_hd__diode_2
Xoutput77 _81_/X VGND VGND VPWR VPWR top_width_0_height_0__pin_40_upper sky130_fd_sc_hd__buf_2
Xoutput55 _70_/X VGND VGND VPWR VPWR right_width_0_height_0__pin_45_upper sky130_fd_sc_hd__buf_2
Xltile_clb_mode__0.ltile_fle_2.ltile_phy_fabric_0.ltile_frac_logic_0.ltile_frac_lut4_0.frac_lut4_0_.frac_lut4_mux_0_.mux_l1_in_7_
+ hold33/A hold117/A repeater91/X VGND VGND VPWR VPWR ltile_clb_mode__0.ltile_fle_2.ltile_phy_fabric_0.ltile_frac_logic_0.ltile_frac_lut4_0.frac_lut4_0_.frac_lut4_mux_0_.mux_l1_in_7_/X
+ sky130_fd_sc_hd__mux2_1
Xoutput44 output44/A VGND VGND VPWR VPWR prog_clk_0_E_out sky130_fd_sc_hd__clkbuf_1
XFILLER_31_169 VGND VGND VPWR VPWR sky130_fd_sc_hd__fill_1
XTAP_169 VGND VPWR sky130_fd_sc_hd__tapvpwrvgnd_1
XFILLER_22_136 VGND VGND VPWR VPWR sky130_fd_sc_hd__decap_4
XTAP_158 VGND VPWR sky130_fd_sc_hd__tapvpwrvgnd_1
XTAP_147 VGND VPWR sky130_fd_sc_hd__tapvpwrvgnd_1
Xltile_clb_mode__0.ltile_fle_6.ltile_phy_fabric_0.ltile_frac_logic_0.ltile_frac_lut4_0.frac_lut4_0_.frac_lut4_mux_0_.mux_l1_in_4_
+ hold59/A hold79/A repeater83/X VGND VGND VPWR VPWR ltile_clb_mode__0.ltile_fle_6.ltile_phy_fabric_0.ltile_frac_logic_0.ltile_frac_lut4_0.frac_lut4_0_.frac_lut4_mux_0_.mux_l1_in_4_/X
+ sky130_fd_sc_hd__mux2_1
XTAP_136 VGND VPWR sky130_fd_sc_hd__tapvpwrvgnd_1
XTAP_125 VGND VPWR sky130_fd_sc_hd__tapvpwrvgnd_1
XTAP_103 VGND VPWR sky130_fd_sc_hd__tapvpwrvgnd_1
XTAP_114 VGND VPWR sky130_fd_sc_hd__tapvpwrvgnd_1
Xltile_clb_mode__0.ltile_fle_1.ltile_phy_fabric_0.ltile_clb_fle_ff_0.sky130_fd_sc_hd__sdfxtp_1_0_
+ repeater97/X ltile_clb_mode__0.ltile_fle_1.ltile_phy_fabric_0.mux_ff_0_D_0.mux_l2_in_0_/X
+ ltile_clb_mode__0.ltile_fle_1.ltile_phy_fabric_0.mux_ff_0_D_0.mux_l1_in_0_/A0 repeater102/X
+ VGND VGND VPWR VPWR ltile_clb_mode__0.ltile_fle_1.ltile_phy_fabric_0.mux_fabric_out_0.mux_l1_in_0_/A1
+ sky130_fd_sc_hd__sdfxtp_1
Xltile_clb_mode__0.ltile_fle_1.ltile_phy_fabric_0.ltile_frac_logic_0.ltile_frac_lut4_0.frac_lut4_sky130_fd_sc_hd__dfxtp_1_mem.sky130_fd_sc_hd__dfxtp_1_9_
+ ltile_clb_mode__0.ltile_fle_1.ltile_phy_fabric_0.mem_fabric_out_0.sky130_fd_sc_hd__dfxtp_1_0_/CLK
+ hold142/X VGND VGND VPWR VPWR hold85/A sky130_fd_sc_hd__dfxtp_1
XFILLER_21_180 VGND VGND VPWR VPWR sky130_fd_sc_hd__fill_1
Xrepeater96 repeater97/X VGND VGND VPWR VPWR repeater96/X sky130_fd_sc_hd__clkbuf_1
X_80_ _80_/A VGND VGND VPWR VPWR _80_/X sky130_fd_sc_hd__clkbuf_1
Xltile_clb_mode__0.ltile_fle_6.ltile_phy_fabric_0.ltile_frac_logic_0.ltile_frac_lut4_0.frac_lut4_0_.frac_lut4_mux_0_.mux_l4_in_0_
+ ltile_clb_mode__0.ltile_fle_6.ltile_phy_fabric_0.ltile_frac_logic_0.ltile_frac_lut4_0.frac_lut4_0_.frac_lut4_mux_0_.mux_l3_in_1_/X
+ ltile_clb_mode__0.ltile_fle_6.ltile_phy_fabric_0.ltile_frac_logic_0.ltile_frac_lut4_0.frac_lut4_0_.frac_lut4_mux_0_.mux_l3_in_0_/X
+ ltile_clb_mode__0.ltile_fle_6.ltile_phy_fabric_0.ltile_frac_logic_0.ltile_frac_lut4_0.frac_lut4_0_.sky130_fd_sc_hd__buf_2_3_/X
+ VGND VGND VPWR VPWR ltile_clb_mode__0.ltile_fle_6.ltile_phy_fabric_0.ltile_frac_logic_0.ltile_frac_lut4_0.frac_lut4_0_.frac_lut4_mux_0_.mux_l4_in_0_/X
+ sky130_fd_sc_hd__mux2_1
Xrepeater85 repeater85/A VGND VGND VPWR VPWR repeater85/X sky130_fd_sc_hd__clkbuf_2
XFILLER_3_15 VGND VGND VPWR VPWR sky130_fd_sc_hd__decap_4
Xhold140 hold140/A VGND VGND VPWR VPWR hold140/X sky130_fd_sc_hd__clkdlybuf4s25_1
Xhold162 hold162/A VGND VGND VPWR VPWR hold162/X sky130_fd_sc_hd__clkdlybuf4s25_1
Xltile_clb_mode__0.ltile_fle_0.ltile_phy_fabric_0.ltile_frac_logic_0.ltile_frac_lut4_0.frac_lut4_sky130_fd_sc_hd__dfxtp_1_mem.sky130_fd_sc_hd__dfxtp_1_10_
+ clkbuf_4_1_0_ltile_clb_mode__0.ltile_fle_0.ltile_phy_fabric_0.ltile_frac_logic_0.ltile_frac_lut4_0.frac_lut4_sky130_fd_sc_hd__dfxtp_1_mem.prog_clk/X
+ hold63/X VGND VGND VPWR VPWR hold66/A sky130_fd_sc_hd__dfxtp_1
Xhold151 hold151/A VGND VGND VPWR VPWR hold151/X sky130_fd_sc_hd__clkdlybuf4s25_1
Xhold184 hold184/A VGND VGND VPWR VPWR hold184/X sky130_fd_sc_hd__clkdlybuf4s25_1
Xhold195 hold195/A VGND VGND VPWR VPWR hold195/X sky130_fd_sc_hd__clkdlybuf4s25_1
Xhold173 hold173/A VGND VGND VPWR VPWR hold173/X sky130_fd_sc_hd__clkdlybuf4s25_1
XFILLER_5_110 VGND VGND VPWR VPWR sky130_fd_sc_hd__fill_2
Xltile_clb_mode__0.ltile_fle_2.ltile_phy_fabric_0.ltile_frac_logic_0.mux_frac_logic_out_0.mux_l1_in_0_
+ ltile_clb_mode__0.ltile_fle_2.ltile_phy_fabric_0.ltile_frac_logic_0.mux_frac_logic_out_0.mux_l1_in_0_/A0
+ ltile_clb_mode__0.ltile_fle_2.ltile_phy_fabric_0.ltile_frac_logic_0.mux_frac_logic_out_0.mux_l1_in_0_/A1
+ hold52/A VGND VGND VPWR VPWR ltile_clb_mode__0.ltile_fle_2.ltile_phy_fabric_0.ltile_frac_logic_0.mux_frac_logic_out_0.mux_l1_in_0_/X
+ sky130_fd_sc_hd__mux2_1
XANTENNA_output54_A _70_/A VGND VGND VPWR VPWR sky130_fd_sc_hd__diode_2
Xltile_clb_mode__0.ltile_fle_6.ltile_phy_fabric_0.ltile_frac_logic_0.ltile_frac_lut4_0.frac_lut4_0_.frac_lut4_mux_0_.mux_l3_in_1_
+ ltile_clb_mode__0.ltile_fle_6.ltile_phy_fabric_0.ltile_frac_logic_0.ltile_frac_lut4_0.frac_lut4_0_.frac_lut4_mux_0_.mux_l3_in_1_/A0
+ ltile_clb_mode__0.ltile_fle_6.ltile_phy_fabric_0.ltile_frac_logic_0.ltile_frac_lut4_0.frac_lut4_0_.frac_lut4_mux_0_.mux_l3_in_1_/A1
+ ltile_clb_mode__0.ltile_fle_6.ltile_phy_fabric_0.ltile_frac_logic_0.ltile_frac_lut4_0.frac_lut4_0_.sky130_fd_sc_hd__buf_2_2_/X
+ VGND VGND VPWR VPWR ltile_clb_mode__0.ltile_fle_6.ltile_phy_fabric_0.ltile_frac_logic_0.ltile_frac_lut4_0.frac_lut4_0_.frac_lut4_mux_0_.mux_l3_in_1_/X
+ sky130_fd_sc_hd__mux2_1
Xltile_clb_mode__0.ltile_fle_7.ltile_phy_fabric_0.mux_ff_0_D_0.mux_l2_in_0_ ltile_clb_mode__0.ltile_fle_7.ltile_phy_fabric_0.mux_ff_0_D_0.mux_l2_in_0_/A0
+ ltile_clb_mode__0.ltile_fle_7.ltile_phy_fabric_0.mux_ff_0_D_0.mux_l1_in_0_/X output43/A
+ VGND VGND VPWR VPWR ltile_clb_mode__0.ltile_fle_7.ltile_phy_fabric_0.mux_ff_0_D_0.mux_l2_in_0_/X
+ sky130_fd_sc_hd__mux2_1
Xprog_clk_0_FTB00 prog_clk_0_FTB00/A VGND VGND VPWR VPWR prog_clk_0_FTB00/X sky130_fd_sc_hd__buf_8
Xltile_clb_mode__0.ltile_fle_5.ltile_phy_fabric_0.mem_fabric_out_1.sky130_fd_sc_hd__dfxtp_1_1_
+ ltile_clb_mode__0.ltile_fle_5.ltile_phy_fabric_0.mem_ff_0_D_0.sky130_fd_sc_hd__dfxtp_1_0_/CLK
+ hold192/X VGND VGND VPWR VPWR hold170/A sky130_fd_sc_hd__dfxtp_1
XFILLER_29_3 VGND VGND VPWR VPWR sky130_fd_sc_hd__fill_1
XFILLER_18_45 VGND VGND VPWR VPWR sky130_fd_sc_hd__fill_2
Xltile_clb_mode__0.ltile_fle_6.ltile_phy_fabric_0.ltile_frac_logic_0.ltile_frac_lut4_0.frac_lut4_0_.frac_lut4_mux_0_.mux_l2_in_2_
+ ltile_clb_mode__0.ltile_fle_6.ltile_phy_fabric_0.ltile_frac_logic_0.ltile_frac_lut4_0.frac_lut4_0_.frac_lut4_mux_0_.mux_l1_in_5_/X
+ ltile_clb_mode__0.ltile_fle_6.ltile_phy_fabric_0.ltile_frac_logic_0.ltile_frac_lut4_0.frac_lut4_0_.frac_lut4_mux_0_.mux_l1_in_4_/X
+ ltile_clb_mode__0.ltile_fle_6.ltile_phy_fabric_0.ltile_frac_logic_0.ltile_frac_lut4_0.frac_lut4_0_.sky130_fd_sc_hd__buf_2_1_/X
+ VGND VGND VPWR VPWR ltile_clb_mode__0.ltile_fle_6.ltile_phy_fabric_0.ltile_frac_logic_0.ltile_frac_lut4_0.frac_lut4_0_.frac_lut4_mux_0_.mux_l2_in_2_/X
+ sky130_fd_sc_hd__mux2_1
Xhold88 hold88/A VGND VGND VPWR VPWR hold88/X sky130_fd_sc_hd__clkdlybuf4s25_1
XFILLER_28_153 VGND VGND VPWR VPWR sky130_fd_sc_hd__fill_1
Xhold44 hold44/A VGND VGND VPWR VPWR hold44/X sky130_fd_sc_hd__clkdlybuf4s25_1
Xhold77 hold77/A VGND VGND VPWR VPWR hold77/X sky130_fd_sc_hd__clkdlybuf4s25_1
Xhold11 hold11/A VGND VGND VPWR VPWR hold11/X sky130_fd_sc_hd__clkdlybuf4s25_1
Xhold33 hold33/A VGND VGND VPWR VPWR hold33/X sky130_fd_sc_hd__clkdlybuf4s25_1