* NGSPICE file created from sb_0__0_.ext - technology: sky130A

* Black-box entry subcircuit for sky130_fd_sc_hd__tapvpwrvgnd_1 abstract view
.subckt sky130_fd_sc_hd__tapvpwrvgnd_1 VGND VPWR
.ends

* Black-box entry subcircuit for sky130_fd_sc_hd__dfxtp_1 abstract view
.subckt sky130_fd_sc_hd__dfxtp_1 CLK D VGND VNB VPB VPWR Q
.ends

* Black-box entry subcircuit for sky130_fd_sc_hd__fill_2 abstract view
.subckt sky130_fd_sc_hd__fill_2 VGND VNB VPB VPWR
.ends

* Black-box entry subcircuit for sky130_fd_sc_hd__decap_8 abstract view
.subckt sky130_fd_sc_hd__decap_8 VGND VNB VPB VPWR
.ends

* Black-box entry subcircuit for sky130_fd_sc_hd__clkbuf_1 abstract view
.subckt sky130_fd_sc_hd__clkbuf_1 A VGND VNB VPB VPWR X
.ends

* Black-box entry subcircuit for sky130_fd_sc_hd__fill_1 abstract view
.subckt sky130_fd_sc_hd__fill_1 VGND VNB VPB VPWR
.ends

* Black-box entry subcircuit for sky130_ef_sc_hd__decap_12 abstract view
.subckt sky130_ef_sc_hd__decap_12 VGND VPWR VPB VNB
.ends

* Black-box entry subcircuit for sky130_fd_sc_hd__clkdlybuf4s25_1 abstract view
.subckt sky130_fd_sc_hd__clkdlybuf4s25_1 A VGND VNB VPB VPWR X
.ends

* Black-box entry subcircuit for sky130_fd_sc_hd__diode_2 abstract view
.subckt sky130_fd_sc_hd__diode_2 DIODE VGND VNB VPB VPWR
.ends

* Black-box entry subcircuit for sky130_fd_sc_hd__decap_6 abstract view
.subckt sky130_fd_sc_hd__decap_6 VGND VNB VPB VPWR
.ends

* Black-box entry subcircuit for sky130_fd_sc_hd__buf_2 abstract view
.subckt sky130_fd_sc_hd__buf_2 A VGND VNB VPB VPWR X
.ends

* Black-box entry subcircuit for sky130_fd_sc_hd__mux2_1 abstract view
.subckt sky130_fd_sc_hd__mux2_1 A0 A1 S VGND VNB VPB VPWR X
.ends

* Black-box entry subcircuit for sky130_fd_sc_hd__decap_3 abstract view
.subckt sky130_fd_sc_hd__decap_3 VGND VNB VPB VPWR
.ends

* Black-box entry subcircuit for sky130_fd_sc_hd__decap_4 abstract view
.subckt sky130_fd_sc_hd__decap_4 VGND VNB VPB VPWR
.ends

* Black-box entry subcircuit for sky130_fd_sc_hd__conb_1 abstract view
.subckt sky130_fd_sc_hd__conb_1 VGND VNB VPB VPWR HI LO
.ends

* Black-box entry subcircuit for sky130_fd_sc_hd__buf_8 abstract view
.subckt sky130_fd_sc_hd__buf_8 A VGND VNB VPB VPWR X
.ends

* Black-box entry subcircuit for sky130_fd_sc_hd__clkbuf_16 abstract view
.subckt sky130_fd_sc_hd__clkbuf_16 A VGND VNB VPB VPWR X
.ends

* Black-box entry subcircuit for sky130_fd_sc_hd__clkbuf_2 abstract view
.subckt sky130_fd_sc_hd__clkbuf_2 A VGND VNB VPB VPWR X
.ends

* Black-box entry subcircuit for sky130_fd_sc_hd__dlymetal6s2s_1 abstract view
.subckt sky130_fd_sc_hd__dlymetal6s2s_1 A VGND VNB VPB VPWR X
.ends

.subckt sb_0__0_ VGND VPWR ccff_head ccff_tail chanx_right_in[0] chanx_right_in[10]
+ chanx_right_in[11] chanx_right_in[12] chanx_right_in[13] chanx_right_in[14] chanx_right_in[15]
+ chanx_right_in[16] chanx_right_in[17] chanx_right_in[18] chanx_right_in[19] chanx_right_in[1]
+ chanx_right_in[2] chanx_right_in[3] chanx_right_in[4] chanx_right_in[5] chanx_right_in[6]
+ chanx_right_in[7] chanx_right_in[8] chanx_right_in[9] chanx_right_out[0] chanx_right_out[10]
+ chanx_right_out[11] chanx_right_out[12] chanx_right_out[13] chanx_right_out[14]
+ chanx_right_out[15] chanx_right_out[16] chanx_right_out[17] chanx_right_out[18]
+ chanx_right_out[19] chanx_right_out[1] chanx_right_out[2] chanx_right_out[3] chanx_right_out[4]
+ chanx_right_out[5] chanx_right_out[6] chanx_right_out[7] chanx_right_out[8] chanx_right_out[9]
+ chany_top_in[0] chany_top_in[10] chany_top_in[11] chany_top_in[12] chany_top_in[13]
+ chany_top_in[14] chany_top_in[15] chany_top_in[16] chany_top_in[17] chany_top_in[18]
+ chany_top_in[19] chany_top_in[1] chany_top_in[2] chany_top_in[3] chany_top_in[4]
+ chany_top_in[5] chany_top_in[6] chany_top_in[7] chany_top_in[8] chany_top_in[9]
+ chany_top_out[0] chany_top_out[10] chany_top_out[11] chany_top_out[12] chany_top_out[13]
+ chany_top_out[14] chany_top_out[15] chany_top_out[16] chany_top_out[17] chany_top_out[18]
+ chany_top_out[19] chany_top_out[1] chany_top_out[2] chany_top_out[3] chany_top_out[4]
+ chany_top_out[5] chany_top_out[6] chany_top_out[7] chany_top_out[8] chany_top_out[9]
+ prog_clk_0_E_in right_bottom_grid_pin_11_ right_bottom_grid_pin_13_ right_bottom_grid_pin_15_
+ right_bottom_grid_pin_17_ right_bottom_grid_pin_1_ right_bottom_grid_pin_3_ right_bottom_grid_pin_5_
+ right_bottom_grid_pin_7_ right_bottom_grid_pin_9_ top_left_grid_pin_1_
XTAP_188 VGND VPWR sky130_fd_sc_hd__tapvpwrvgnd_1
XTAP_177 VGND VPWR sky130_fd_sc_hd__tapvpwrvgnd_1
Xmem_right_track_20.sky130_fd_sc_hd__dfxtp_1_1_ clkbuf_2_3__f_mem_right_track_0.prog_clk/X
+ hold8/X VGND VGND VPWR VPWR hold15/A sky130_fd_sc_hd__dfxtp_1
Xmem_right_track_2.sky130_fd_sc_hd__dfxtp_1_0_ clkbuf_2_2__f_mem_right_track_0.prog_clk/X
+ hold35/X VGND VGND VPWR VPWR mux_right_track_2.mux_l1_in_1_/S sky130_fd_sc_hd__dfxtp_1
XFILLER_26_96 VGND VGND VPWR VPWR sky130_fd_sc_hd__fill_2
XFILLER_26_85 VGND VGND VPWR VPWR sky130_fd_sc_hd__fill_2
XFILLER_26_63 VGND VGND VPWR VPWR sky130_fd_sc_hd__decap_8
X_83_ _83_/A VGND VGND VPWR VPWR _83_/X sky130_fd_sc_hd__clkbuf_1
XFILLER_13_111 VGND VGND VPWR VPWR sky130_fd_sc_hd__fill_1
XFILLER_12_65 VGND VPWR VPWR VGND sky130_ef_sc_hd__decap_12
XFILLER_10_114 VGND VGND VPWR VPWR sky130_fd_sc_hd__fill_1
X_66_ _66_/A VGND VGND VPWR VPWR _66_/X sky130_fd_sc_hd__clkbuf_1
XFILLER_30_209 VGND VGND VPWR VPWR sky130_fd_sc_hd__fill_2
Xmux_right_track_36.sky130_fd_sc_hd__buf_4_0_ mux_right_track_36.mux_l2_in_0_/X VGND
+ VGND VPWR VPWR _66_/A sky130_fd_sc_hd__clkbuf_1
XFILLER_23_42 VGND VGND VPWR VPWR sky130_fd_sc_hd__fill_2
Xmem_right_track_8.sky130_fd_sc_hd__dfxtp_1_1_ clkbuf_2_0__f_mem_right_track_0.prog_clk/X
+ mux_right_track_8.mux_l1_in_1_/S VGND VGND VPWR VPWR hold39/A sky130_fd_sc_hd__dfxtp_1
XFILLER_2_121 VGND VPWR VPWR VGND sky130_ef_sc_hd__decap_12
XFILLER_0_57 VGND VPWR VPWR VGND sky130_ef_sc_hd__decap_12
XFILLER_2_165 VGND VPWR VPWR VGND sky130_ef_sc_hd__decap_12
XFILLER_9_55 VGND VGND VPWR VPWR sky130_fd_sc_hd__fill_1
X_49_ _49_/A VGND VGND VPWR VPWR _49_/X sky130_fd_sc_hd__clkbuf_1
XFILLER_12_209 VGND VGND VPWR VPWR sky130_fd_sc_hd__fill_2
XFILLER_18_53 VGND VPWR VPWR VGND sky130_ef_sc_hd__decap_12
XFILLER_7_202 VGND VGND VPWR VPWR sky130_fd_sc_hd__fill_2
XFILLER_29_139 VGND VPWR VPWR VGND sky130_ef_sc_hd__decap_12
XFILLER_29_96 VGND VGND VPWR VPWR sky130_fd_sc_hd__fill_1
XFILLER_28_194 VGND VGND VPWR VPWR sky130_fd_sc_hd__fill_2
XFILLER_28_150 VGND VPWR VPWR VGND sky130_ef_sc_hd__decap_12
Xhold41 hold41/A VGND VGND VPWR VPWR hold41/X sky130_fd_sc_hd__clkdlybuf4s25_1
XFILLER_20_98 VGND VGND VPWR VPWR sky130_fd_sc_hd__fill_2
Xhold30 hold30/A VGND VGND VPWR VPWR hold30/X sky130_fd_sc_hd__clkdlybuf4s25_1
XFILLER_4_216 VGND VGND VPWR VPWR sky130_fd_sc_hd__fill_2
XANTENNA_input18_A chanx_right_in[6] VGND VGND VPWR VPWR sky130_fd_sc_hd__diode_2
XANTENNA_output86_A _71_/X VGND VGND VPWR VPWR sky130_fd_sc_hd__diode_2
XFILLER_19_161 VGND VGND VPWR VPWR sky130_fd_sc_hd__decap_6
XFILLER_13_3 VGND VPWR VPWR VGND sky130_ef_sc_hd__decap_12
XFILLER_25_197 VGND VGND VPWR VPWR sky130_fd_sc_hd__fill_2
XANTENNA_mux_right_track_2.mux_l2_in_1__A1 input44/X VGND VGND VPWR VPWR sky130_fd_sc_hd__diode_2
Xoutput75 _79_/X VGND VGND VPWR VPWR chany_top_out[11] sky130_fd_sc_hd__buf_2
Xoutput86 _71_/X VGND VGND VPWR VPWR chany_top_out[3] sky130_fd_sc_hd__buf_2
Xmux_right_track_38.mux_l1_in_0_ input44/X input31/X hold9/A VGND VGND VPWR VPWR mux_right_track_38.mux_l1_in_0_/X
+ sky130_fd_sc_hd__mux2_1
Xoutput64 _49_/X VGND VGND VPWR VPWR chanx_right_out[1] sky130_fd_sc_hd__buf_2
Xoutput53 _48_/X VGND VGND VPWR VPWR chanx_right_out[0] sky130_fd_sc_hd__buf_2
XTAP_189 VGND VPWR sky130_fd_sc_hd__tapvpwrvgnd_1
XTAP_178 VGND VPWR sky130_fd_sc_hd__tapvpwrvgnd_1
Xmem_right_track_20.sky130_fd_sc_hd__dfxtp_1_0_ clkbuf_2_3__f_mem_right_track_0.prog_clk/X
+ hold6/X VGND VGND VPWR VPWR hold8/A sky130_fd_sc_hd__dfxtp_1
XTAP_167 VGND VPWR sky130_fd_sc_hd__tapvpwrvgnd_1
XTAP_156 VGND VPWR sky130_fd_sc_hd__tapvpwrvgnd_1
XTAP_145 VGND VPWR sky130_fd_sc_hd__tapvpwrvgnd_1
XTAP_134 VGND VPWR sky130_fd_sc_hd__tapvpwrvgnd_1
XTAP_123 VGND VPWR sky130_fd_sc_hd__tapvpwrvgnd_1
XTAP_112 VGND VPWR sky130_fd_sc_hd__tapvpwrvgnd_1
XTAP_101 VGND VPWR sky130_fd_sc_hd__tapvpwrvgnd_1
XFILLER_26_53 VGND VGND VPWR VPWR sky130_fd_sc_hd__fill_2
XFILLER_13_189 VGND VGND VPWR VPWR sky130_fd_sc_hd__decap_3
XFILLER_3_57 VGND VPWR VPWR VGND sky130_ef_sc_hd__decap_12
XFILLER_9_138 VGND VGND VPWR VPWR sky130_fd_sc_hd__fill_2
XFILLER_9_149 VGND VGND VPWR VPWR sky130_fd_sc_hd__fill_2
X_82_ _82_/A VGND VGND VPWR VPWR _82_/X sky130_fd_sc_hd__clkbuf_1
XFILLER_33_207 VGND VGND VPWR VPWR sky130_fd_sc_hd__fill_2
XFILLER_12_77 VGND VGND VPWR VPWR sky130_fd_sc_hd__decap_6
X_65_ _65_/A VGND VGND VPWR VPWR _65_/X sky130_fd_sc_hd__clkbuf_1
XFILLER_23_54 VGND VGND VPWR VPWR sky130_fd_sc_hd__fill_2
XFILLER_15_207 VGND VGND VPWR VPWR sky130_fd_sc_hd__fill_2
XANTENNA_mux_top_track_0.mux_l1_in_0__A1 input51/X VGND VGND VPWR VPWR sky130_fd_sc_hd__diode_2
Xmem_right_track_8.sky130_fd_sc_hd__dfxtp_1_0_ clkbuf_2_3__f_mem_right_track_0.prog_clk/X
+ hold40/X VGND VGND VPWR VPWR mux_right_track_8.mux_l1_in_1_/S sky130_fd_sc_hd__dfxtp_1
Xmem_right_track_26.sky130_fd_sc_hd__dfxtp_1_1_ clkbuf_2_0__f_mem_right_track_0.prog_clk/X
+ hold25/X VGND VGND VPWR VPWR hold13/A sky130_fd_sc_hd__dfxtp_1
XANTENNA_input48_A right_bottom_grid_pin_5_ VGND VGND VPWR VPWR sky130_fd_sc_hd__diode_2
XFILLER_0_69 VGND VPWR VPWR VGND sky130_ef_sc_hd__decap_12
XFILLER_2_133 VGND VGND VPWR VPWR sky130_fd_sc_hd__decap_6
XFILLER_2_177 VGND VPWR VPWR VGND sky130_ef_sc_hd__decap_12
XFILLER_2_199 VGND VGND VPWR VPWR sky130_fd_sc_hd__fill_2
XFILLER_20_221 VGND VGND VPWR VPWR sky130_fd_sc_hd__fill_2
X_48_ _48_/A VGND VGND VPWR VPWR _48_/X sky130_fd_sc_hd__clkbuf_1
XFILLER_18_87 VGND VGND VPWR VPWR sky130_fd_sc_hd__decap_3
XFILLER_18_65 VGND VGND VPWR VPWR sky130_fd_sc_hd__decap_8
XFILLER_11_221 VGND VGND VPWR VPWR sky130_fd_sc_hd__fill_2
Xhold20 hold20/A VGND VGND VPWR VPWR hold20/X sky130_fd_sc_hd__clkdlybuf4s25_1
Xhold31 hold31/A VGND VGND VPWR VPWR hold31/X sky130_fd_sc_hd__clkdlybuf4s25_1
XFILLER_4_206 VGND VGND VPWR VPWR sky130_fd_sc_hd__fill_2
XFILLER_28_184 VGND VGND VPWR VPWR sky130_fd_sc_hd__fill_2
XFILLER_28_162 VGND VGND VPWR VPWR sky130_fd_sc_hd__decap_4
Xmux_right_track_28.mux_l2_in_0__93 VGND VGND VPWR VPWR mux_right_track_28.mux_l2_in_0_/A0
+ mux_right_track_28.mux_l2_in_0__93/LO sky130_fd_sc_hd__conb_1
XFILLER_25_110 VGND VGND VPWR VPWR sky130_fd_sc_hd__fill_2
XFILLER_15_55 VGND VGND VPWR VPWR sky130_fd_sc_hd__fill_1
XFILLER_1_209 VGND VGND VPWR VPWR sky130_fd_sc_hd__fill_2
Xoutput87 _72_/X VGND VGND VPWR VPWR chany_top_out[4] sky130_fd_sc_hd__buf_2
Xoutput76 _80_/X VGND VGND VPWR VPWR chany_top_out[12] sky130_fd_sc_hd__buf_2
XFILLER_31_113 VGND VGND VPWR VPWR sky130_fd_sc_hd__fill_2
XFILLER_31_98 VGND VGND VPWR VPWR sky130_fd_sc_hd__fill_2
XFILLER_31_87 VGND VGND VPWR VPWR sky130_fd_sc_hd__fill_2
XFILLER_31_76 VGND VGND VPWR VPWR sky130_fd_sc_hd__fill_2
XFILLER_31_65 VGND VGND VPWR VPWR sky130_fd_sc_hd__fill_2
Xoutput54 _58_/X VGND VGND VPWR VPWR chanx_right_out[10] sky130_fd_sc_hd__buf_2
XANTENNA_input30_A chany_top_in[17] VGND VGND VPWR VPWR sky130_fd_sc_hd__diode_2
Xoutput65 _50_/X VGND VGND VPWR VPWR chanx_right_out[2] sky130_fd_sc_hd__buf_2
XFILLER_16_154 VGND VPWR VPWR VGND sky130_ef_sc_hd__decap_12
XTAP_179 VGND VPWR sky130_fd_sc_hd__tapvpwrvgnd_1
XTAP_168 VGND VPWR sky130_fd_sc_hd__tapvpwrvgnd_1
XTAP_157 VGND VPWR sky130_fd_sc_hd__tapvpwrvgnd_1
XFILLER_22_168 VGND VGND VPWR VPWR sky130_fd_sc_hd__fill_2
XFILLER_22_157 VGND VGND VPWR VPWR sky130_fd_sc_hd__fill_2
XFILLER_22_135 VGND VGND VPWR VPWR sky130_fd_sc_hd__decap_4
XFILLER_22_113 VGND VGND VPWR VPWR sky130_fd_sc_hd__decap_6
XANTENNA_mux_right_track_6.mux_l1_in_1__A0 input42/X VGND VGND VPWR VPWR sky130_fd_sc_hd__diode_2
XTAP_146 VGND VPWR sky130_fd_sc_hd__tapvpwrvgnd_1
XTAP_135 VGND VPWR sky130_fd_sc_hd__tapvpwrvgnd_1
XTAP_124 VGND VPWR sky130_fd_sc_hd__tapvpwrvgnd_1
XTAP_113 VGND VPWR sky130_fd_sc_hd__tapvpwrvgnd_1
XTAP_102 VGND VPWR sky130_fd_sc_hd__tapvpwrvgnd_1
XFILLER_26_32 VGND VGND VPWR VPWR sky130_fd_sc_hd__decap_4
XFILLER_13_157 VGND VGND VPWR VPWR sky130_fd_sc_hd__decap_4
XFILLER_13_146 VGND VGND VPWR VPWR sky130_fd_sc_hd__fill_2
XFILLER_13_113 VGND VGND VPWR VPWR sky130_fd_sc_hd__decap_4
X_81_ _81_/A VGND VGND VPWR VPWR _81_/X sky130_fd_sc_hd__clkbuf_1
XFILLER_3_69 VGND VPWR VPWR VGND sky130_ef_sc_hd__decap_12
XFILLER_8_183 VGND VPWR VPWR VGND sky130_ef_sc_hd__decap_12
XFILLER_27_216 VGND VGND VPWR VPWR sky130_fd_sc_hd__fill_1
XFILLER_6_109 VGND VPWR VPWR VGND sky130_ef_sc_hd__decap_12
XFILLER_33_219 VGND VGND VPWR VPWR sky130_fd_sc_hd__decap_4
X_64_ _64_/A VGND VGND VPWR VPWR _64_/X sky130_fd_sc_hd__clkbuf_1
Xmem_right_track_26.sky130_fd_sc_hd__dfxtp_1_0_ clkbuf_2_0__f_mem_right_track_0.prog_clk/X
+ mux_right_track_24.mux_l2_in_0_/S VGND VGND VPWR VPWR hold25/A sky130_fd_sc_hd__dfxtp_1
XFILLER_0_15 VGND VPWR VPWR VGND sky130_ef_sc_hd__decap_12
XFILLER_2_189 VGND VGND VPWR VPWR sky130_fd_sc_hd__decap_6
XFILLER_3_3 VGND VPWR VPWR VGND sky130_ef_sc_hd__decap_12
Xmux_right_track_16.mux_l2_in_0__110 VGND VGND VPWR VPWR mux_right_track_16.mux_l2_in_0_/A0
+ mux_right_track_16.mux_l2_in_0__110/LO sky130_fd_sc_hd__conb_1
XFILLER_9_57 VGND VPWR VPWR VGND sky130_ef_sc_hd__decap_12
Xhold21 hold21/A VGND VGND VPWR VPWR hold21/X sky130_fd_sc_hd__clkdlybuf4s25_1
XFILLER_29_43 VGND VPWR VPWR VGND sky130_ef_sc_hd__decap_12
XFILLER_28_141 VGND VGND VPWR VPWR sky130_fd_sc_hd__decap_6
Xhold10 hold10/A VGND VGND VPWR VPWR hold10/X sky130_fd_sc_hd__clkdlybuf4s25_1
Xhold32 hold32/A VGND VGND VPWR VPWR hold32/X sky130_fd_sc_hd__clkdlybuf4s25_1
Xoutput88 _73_/X VGND VGND VPWR VPWR chany_top_out[5] sky130_fd_sc_hd__buf_2
Xoutput77 _81_/X VGND VGND VPWR VPWR chany_top_out[13] sky130_fd_sc_hd__buf_2
Xoutput55 _59_/X VGND VGND VPWR VPWR chanx_right_out[11] sky130_fd_sc_hd__buf_2
XANTENNA_input23_A chany_top_in[10] VGND VGND VPWR VPWR sky130_fd_sc_hd__diode_2
XFILLER_25_166 VGND VGND VPWR VPWR sky130_fd_sc_hd__fill_2
Xoutput66 _51_/X VGND VGND VPWR VPWR chanx_right_out[3] sky130_fd_sc_hd__buf_2
XFILLER_16_166 VGND VPWR VPWR VGND sky130_ef_sc_hd__decap_12
XFILLER_0_221 VGND VGND VPWR VPWR sky130_fd_sc_hd__fill_2
XTAP_169 VGND VPWR sky130_fd_sc_hd__tapvpwrvgnd_1
XTAP_158 VGND VPWR sky130_fd_sc_hd__tapvpwrvgnd_1
XTAP_147 VGND VPWR sky130_fd_sc_hd__tapvpwrvgnd_1
XTAP_136 VGND VPWR sky130_fd_sc_hd__tapvpwrvgnd_1
XTAP_125 VGND VPWR sky130_fd_sc_hd__tapvpwrvgnd_1
XTAP_114 VGND VPWR sky130_fd_sc_hd__tapvpwrvgnd_1
XTAP_103 VGND VPWR sky130_fd_sc_hd__tapvpwrvgnd_1
XANTENNA_mux_right_track_6.mux_l1_in_1__A1 input49/X VGND VGND VPWR VPWR sky130_fd_sc_hd__diode_2
XFILLER_13_169 VGND VPWR VPWR VGND sky130_ef_sc_hd__decap_12
XFILLER_13_125 VGND VPWR VPWR VGND sky130_ef_sc_hd__decap_12
X_80_ _80_/A VGND VGND VPWR VPWR _80_/X sky130_fd_sc_hd__clkbuf_1
XFILLER_12_180 VGND VPWR VPWR VGND sky130_ef_sc_hd__decap_12
XFILLER_3_15 VGND VPWR VPWR VGND sky130_ef_sc_hd__decap_12
XFILLER_8_151 VGND VPWR VPWR VGND sky130_ef_sc_hd__decap_12
XFILLER_8_195 VGND VGND VPWR VPWR sky130_fd_sc_hd__fill_1
XFILLER_10_139 VGND VGND VPWR VPWR sky130_fd_sc_hd__fill_1
XFILLER_18_217 VGND VGND VPWR VPWR sky130_fd_sc_hd__fill_2
X_63_ _63_/A VGND VGND VPWR VPWR _63_/X sky130_fd_sc_hd__clkbuf_1
Xprog_clk_0_FTB00 prog_clk_0_E_in VGND VGND VPWR VPWR prog_clk_0_FTB00/X sky130_fd_sc_hd__buf_8
XANTENNA_mux_right_track_14.mux_l1_in_0__A0 input49/X VGND VGND VPWR VPWR sky130_fd_sc_hd__diode_2
XFILLER_23_89 VGND VGND VPWR VPWR sky130_fd_sc_hd__fill_1
XFILLER_0_27 VGND VGND VPWR VPWR sky130_fd_sc_hd__fill_1
XFILLER_9_69 VGND VGND VPWR VPWR sky130_fd_sc_hd__decap_6
XFILLER_20_212 VGND VGND VPWR VPWR sky130_fd_sc_hd__fill_2
XFILLER_11_212 VGND VGND VPWR VPWR sky130_fd_sc_hd__fill_2
Xmux_right_track_10.mux_l2_in_0_ mux_right_track_10.mux_l2_in_0_/A0 mux_right_track_10.mux_l1_in_0_/X
+ hold36/A VGND VGND VPWR VPWR mux_right_track_10.mux_l2_in_0_/X sky130_fd_sc_hd__mux2_1
XFILLER_7_216 VGND VGND VPWR VPWR sky130_fd_sc_hd__fill_2
XFILLER_1_81 VGND VPWR VPWR VGND sky130_ef_sc_hd__decap_12
Xhold33 hold33/A VGND VGND VPWR VPWR hold33/X sky130_fd_sc_hd__clkdlybuf4s25_1
Xhold11 hold11/A VGND VGND VPWR VPWR hold11/X sky130_fd_sc_hd__clkdlybuf4s25_1
XFILLER_29_99 VGND VGND VPWR VPWR sky130_fd_sc_hd__fill_2
XFILLER_29_55 VGND VGND VPWR VPWR sky130_fd_sc_hd__fill_1
XFILLER_29_11 VGND VGND VPWR VPWR sky130_fd_sc_hd__decap_4
Xhold22 hold22/A VGND VGND VPWR VPWR hold22/X sky130_fd_sc_hd__clkdlybuf4s25_1
XFILLER_20_68 VGND VPWR VPWR VGND sky130_ef_sc_hd__decap_12
XFILLER_6_15 VGND VPWR VPWR VGND sky130_ef_sc_hd__decap_12
XFILLER_19_197 VGND VGND VPWR VPWR sky130_fd_sc_hd__fill_2
XFILLER_19_186 VGND VGND VPWR VPWR sky130_fd_sc_hd__fill_1
Xoutput78 _82_/X VGND VGND VPWR VPWR chany_top_out[14] sky130_fd_sc_hd__buf_2
Xoutput89 _74_/X VGND VGND VPWR VPWR chany_top_out[6] sky130_fd_sc_hd__buf_2
Xoutput56 _60_/X VGND VGND VPWR VPWR chanx_right_out[12] sky130_fd_sc_hd__buf_2
XFILLER_31_23 VGND VGND VPWR VPWR sky130_fd_sc_hd__fill_2
Xoutput67 _52_/X VGND VGND VPWR VPWR chanx_right_out[4] sky130_fd_sc_hd__buf_2
XFILLER_25_145 VGND VGND VPWR VPWR sky130_fd_sc_hd__decap_4
XFILLER_15_57 VGND VPWR VPWR VGND sky130_ef_sc_hd__decap_12
XANTENNA_output84_A _69_/X VGND VGND VPWR VPWR sky130_fd_sc_hd__diode_2
XFILLER_31_159 VGND VGND VPWR VPWR sky130_fd_sc_hd__fill_2
XTAP_159 VGND VPWR sky130_fd_sc_hd__tapvpwrvgnd_1
XTAP_148 VGND VPWR sky130_fd_sc_hd__tapvpwrvgnd_1
XTAP_137 VGND VPWR sky130_fd_sc_hd__tapvpwrvgnd_1
XFILLER_16_178 VGND VPWR VPWR VGND sky130_ef_sc_hd__decap_12
XFILLER_16_123 VGND VGND VPWR VPWR sky130_fd_sc_hd__fill_2
XFILLER_16_112 VGND VGND VPWR VPWR sky130_fd_sc_hd__fill_2
XFILLER_16_101 VGND VGND VPWR VPWR sky130_fd_sc_hd__fill_2
XTAP_126 VGND VPWR sky130_fd_sc_hd__tapvpwrvgnd_1
XTAP_115 VGND VPWR sky130_fd_sc_hd__tapvpwrvgnd_1
XFILLER_11_3 VGND VPWR VPWR VGND sky130_ef_sc_hd__decap_12
XANTENNA_input16_A chanx_right_in[4] VGND VGND VPWR VPWR sky130_fd_sc_hd__diode_2
XTAP_104 VGND VPWR sky130_fd_sc_hd__tapvpwrvgnd_1
XANTENNA_input8_A chanx_right_in[15] VGND VGND VPWR VPWR sky130_fd_sc_hd__diode_2
Xclkbuf_2_0__f_mem_right_track_0.prog_clk clkbuf_0_mem_right_track_0.prog_clk/X VGND
+ VGND VPWR VPWR clkbuf_2_0__f_mem_right_track_0.prog_clk/X sky130_fd_sc_hd__clkbuf_16
XFILLER_21_192 VGND VGND VPWR VPWR sky130_fd_sc_hd__fill_2
XFILLER_3_27 VGND VPWR VPWR VGND sky130_ef_sc_hd__decap_12
XFILLER_27_207 VGND VGND VPWR VPWR sky130_fd_sc_hd__fill_2
XANTENNA_mux_right_track_22.mux_l1_in_0__A0 input44/X VGND VGND VPWR VPWR sky130_fd_sc_hd__diode_2
XFILLER_12_192 VGND VGND VPWR VPWR sky130_fd_sc_hd__decap_4
XFILLER_8_130 VGND VGND VPWR VPWR sky130_fd_sc_hd__decap_8
XFILLER_8_141 VGND VGND VPWR VPWR sky130_fd_sc_hd__decap_8
XFILLER_8_163 VGND VPWR VPWR VGND sky130_ef_sc_hd__decap_12
Xmux_right_track_20.mux_l2_in_0__113 VGND VGND VPWR VPWR mux_right_track_20.mux_l2_in_0_/A0
+ mux_right_track_20.mux_l2_in_0__113/LO sky130_fd_sc_hd__conb_1
XFILLER_18_207 VGND VGND VPWR VPWR sky130_fd_sc_hd__fill_2
XFILLER_5_111 VGND VGND VPWR VPWR sky130_fd_sc_hd__fill_1
XFILLER_32_221 VGND VGND VPWR VPWR sky130_fd_sc_hd__fill_2
X_62_ _62_/A VGND VGND VPWR VPWR _62_/X sky130_fd_sc_hd__clkbuf_1
XFILLER_23_221 VGND VGND VPWR VPWR sky130_fd_sc_hd__fill_2
XFILLER_23_46 VGND VGND VPWR VPWR sky130_fd_sc_hd__decap_8
XFILLER_1_191 VGND VGND VPWR VPWR sky130_fd_sc_hd__fill_2
XFILLER_9_15 VGND VPWR VPWR VGND sky130_ef_sc_hd__decap_12
XFILLER_11_202 VGND VGND VPWR VPWR sky130_fd_sc_hd__fill_2
XANTENNA_input46_A right_bottom_grid_pin_1_ VGND VGND VPWR VPWR sky130_fd_sc_hd__diode_2
XFILLER_7_206 VGND VGND VPWR VPWR sky130_fd_sc_hd__fill_2
XFILLER_1_93 VGND VPWR VPWR VGND sky130_ef_sc_hd__decap_12
Xhold34 hold34/A VGND VGND VPWR VPWR hold34/X sky130_fd_sc_hd__clkdlybuf4s25_1
Xhold12 hold12/A VGND VGND VPWR VPWR hold12/X sky130_fd_sc_hd__clkdlybuf4s25_1
XFILLER_29_67 VGND VGND VPWR VPWR sky130_fd_sc_hd__fill_2
XFILLER_29_23 VGND VGND VPWR VPWR sky130_fd_sc_hd__fill_2
Xhold23 hold23/A VGND VGND VPWR VPWR hold23/X sky130_fd_sc_hd__clkdlybuf4s25_1
XFILLER_6_27 VGND VGND VPWR VPWR sky130_fd_sc_hd__fill_1
Xoutput57 _61_/X VGND VGND VPWR VPWR chanx_right_out[13] sky130_fd_sc_hd__buf_2
XFILLER_31_13 VGND VGND VPWR VPWR sky130_fd_sc_hd__decap_4
Xmem_right_track_12.sky130_fd_sc_hd__dfxtp_1_1_ clkbuf_2_1__f_mem_right_track_0.prog_clk/X
+ hold24/X VGND VGND VPWR VPWR hold38/A sky130_fd_sc_hd__dfxtp_1
XFILLER_25_135 VGND VGND VPWR VPWR sky130_fd_sc_hd__fill_2
XFILLER_25_113 VGND VGND VPWR VPWR sky130_fd_sc_hd__decap_6
XFILLER_15_69 VGND VGND VPWR VPWR sky130_fd_sc_hd__decap_4
Xmux_top_track_0.sky130_fd_sc_hd__buf_4_0_ mux_top_track_0.mux_l2_in_0_/X VGND VGND
+ VPWR VPWR _68_/A sky130_fd_sc_hd__clkbuf_1
Xoutput79 _83_/X VGND VGND VPWR VPWR chany_top_out[15] sky130_fd_sc_hd__buf_2
XFILLER_31_149 VGND VGND VPWR VPWR sky130_fd_sc_hd__fill_2
Xoutput68 _53_/X VGND VGND VPWR VPWR chanx_right_out[5] sky130_fd_sc_hd__buf_2
Xmux_right_track_10.mux_l1_in_0_ input47/X input36/X hold4/A VGND VGND VPWR VPWR mux_right_track_10.mux_l1_in_0_/X
+ sky130_fd_sc_hd__mux2_1
Xmux_right_track_8.mux_l2_in_0_ mux_right_track_8.mux_l1_in_1_/X mux_right_track_8.mux_l1_in_0_/X
+ hold39/A VGND VGND VPWR VPWR mux_right_track_8.mux_l2_in_0_/X sky130_fd_sc_hd__mux2_1
XTAP_149 VGND VPWR sky130_fd_sc_hd__tapvpwrvgnd_1
XTAP_138 VGND VPWR sky130_fd_sc_hd__tapvpwrvgnd_1
XTAP_127 VGND VPWR sky130_fd_sc_hd__tapvpwrvgnd_1
XTAP_116 VGND VPWR sky130_fd_sc_hd__tapvpwrvgnd_1
Xmux_top_track_0.mux_l2_in_0_ mux_top_track_0.mux_l2_in_0_/A0 mux_top_track_0.mux_l1_in_0_/X
+ hold2/A VGND VGND VPWR VPWR mux_top_track_0.mux_l2_in_0_/X sky130_fd_sc_hd__mux2_1
XTAP_105 VGND VPWR sky130_fd_sc_hd__tapvpwrvgnd_1
XANTENNA_mux_right_track_30.mux_l1_in_0__A0 input49/X VGND VGND VPWR VPWR sky130_fd_sc_hd__diode_2
Xmux_right_track_22.mux_l2_in_0_ mux_right_track_22.mux_l2_in_0_/A0 mux_right_track_22.mux_l1_in_0_/X
+ hold17/A VGND VGND VPWR VPWR mux_right_track_22.mux_l2_in_0_/X sky130_fd_sc_hd__mux2_1
XFILLER_7_81 VGND VPWR VPWR VGND sky130_ef_sc_hd__decap_12
XFILLER_13_105 VGND VGND VPWR VPWR sky130_fd_sc_hd__decap_6
XFILLER_3_39 VGND VPWR VPWR VGND sky130_ef_sc_hd__decap_12
XFILLER_8_175 VGND VGND VPWR VPWR sky130_fd_sc_hd__decap_6
XFILLER_8_197 VGND VPWR VPWR VGND sky130_ef_sc_hd__decap_12
Xmux_right_track_8.mux_l1_in_1_ mux_right_track_8.mux_l1_in_1_/A0 input45/X mux_right_track_8.mux_l1_in_1_/S
+ VGND VGND VPWR VPWR mux_right_track_8.mux_l1_in_1_/X sky130_fd_sc_hd__mux2_1
XFILLER_12_15 VGND VPWR VPWR VGND sky130_ef_sc_hd__decap_12
X_61_ _61_/A VGND VGND VPWR VPWR _61_/X sky130_fd_sc_hd__clkbuf_1
XFILLER_5_167 VGND VGND VPWR VPWR sky130_fd_sc_hd__fill_1
XFILLER_0_29 VGND VPWR VPWR VGND sky130_ef_sc_hd__decap_12
XFILLER_9_27 VGND VPWR VPWR VGND sky130_ef_sc_hd__decap_12
XFILLER_1_181 VGND VGND VPWR VPWR sky130_fd_sc_hd__decap_8
XANTENNA_input39_A chany_top_in[7] VGND VGND VPWR VPWR sky130_fd_sc_hd__diode_2
XFILLER_1_3 VGND VPWR VPWR VGND sky130_ef_sc_hd__decap_12
Xmux_right_track_10.sky130_fd_sc_hd__buf_4_0_ mux_right_track_10.mux_l2_in_0_/X VGND
+ VGND VPWR VPWR _53_/A sky130_fd_sc_hd__clkbuf_1
XFILLER_29_57 VGND VGND VPWR VPWR sky130_fd_sc_hd__fill_1
XFILLER_29_35 VGND VGND VPWR VPWR sky130_fd_sc_hd__decap_4
XFILLER_28_122 VGND VGND VPWR VPWR sky130_fd_sc_hd__fill_2
Xhold24 hold24/A VGND VGND VPWR VPWR hold24/X sky130_fd_sc_hd__clkdlybuf4s25_1
Xhold13 hold13/A VGND VGND VPWR VPWR hold13/X sky130_fd_sc_hd__clkdlybuf4s25_1
XFILLER_20_15 VGND VPWR VPWR VGND sky130_ef_sc_hd__decap_12
Xhold35 hold35/A VGND VGND VPWR VPWR hold35/X sky130_fd_sc_hd__clkdlybuf4s25_1
XFILLER_3_221 VGND VGND VPWR VPWR sky130_fd_sc_hd__fill_2
XFILLER_33_191 VGND VGND VPWR VPWR sky130_fd_sc_hd__decap_4
Xmem_right_track_12.sky130_fd_sc_hd__dfxtp_1_0_ clkbuf_2_1__f_mem_right_track_0.prog_clk/X
+ hold36/X VGND VGND VPWR VPWR hold24/A sky130_fd_sc_hd__dfxtp_1
XFILLER_15_15 VGND VPWR VPWR VGND sky130_ef_sc_hd__decap_12
Xoutput58 _62_/X VGND VGND VPWR VPWR chanx_right_out[14] sky130_fd_sc_hd__buf_2
Xoutput69 _54_/X VGND VGND VPWR VPWR chanx_right_out[6] sky130_fd_sc_hd__buf_2
XFILLER_30_194 VGND VGND VPWR VPWR sky130_fd_sc_hd__fill_2
XFILLER_22_139 VGND VGND VPWR VPWR sky130_fd_sc_hd__fill_1
XTAP_139 VGND VPWR sky130_fd_sc_hd__tapvpwrvgnd_1
XTAP_128 VGND VPWR sky130_fd_sc_hd__tapvpwrvgnd_1
XFILLER_15_191 VGND VGND VPWR VPWR sky130_fd_sc_hd__fill_2
XTAP_117 VGND VPWR sky130_fd_sc_hd__tapvpwrvgnd_1
XPHY_0 VGND VGND VPWR VPWR sky130_fd_sc_hd__decap_3
XFILLER_7_93 VGND VPWR VPWR VGND sky130_ef_sc_hd__decap_12
XTAP_106 VGND VPWR sky130_fd_sc_hd__tapvpwrvgnd_1
XFILLER_26_36 VGND VGND VPWR VPWR sky130_fd_sc_hd__fill_1
XFILLER_12_150 VGND VPWR VPWR VGND sky130_ef_sc_hd__decap_12
XANTENNA_input21_A chanx_right_in[9] VGND VGND VPWR VPWR sky130_fd_sc_hd__diode_2
Xmux_right_track_8.mux_l1_in_0_ input46/X input35/X mux_right_track_8.mux_l1_in_1_/S
+ VGND VGND VPWR VPWR mux_right_track_8.mux_l1_in_0_/X sky130_fd_sc_hd__mux2_1
XFILLER_12_27 VGND VGND VPWR VPWR sky130_fd_sc_hd__fill_1
XFILLER_32_201 VGND VGND VPWR VPWR sky130_fd_sc_hd__fill_2
Xmux_right_track_22.mux_l1_in_0_ input44/X input23/X hold10/A VGND VGND VPWR VPWR
+ mux_right_track_22.mux_l1_in_0_/X sky130_fd_sc_hd__mux2_1
Xmem_right_track_18.sky130_fd_sc_hd__dfxtp_1_1_ clkbuf_2_1__f_mem_right_track_0.prog_clk/X
+ hold27/X VGND VGND VPWR VPWR hold6/A sky130_fd_sc_hd__dfxtp_1
X_60_ _60_/A VGND VGND VPWR VPWR _60_/X sky130_fd_sc_hd__clkbuf_1
XFILLER_5_113 VGND VPWR VPWR VGND sky130_ef_sc_hd__decap_12
Xmux_top_track_0.mux_l1_in_0_ input13/X input51/X hold30/A VGND VGND VPWR VPWR mux_top_track_0.mux_l1_in_0_/X
+ sky130_fd_sc_hd__mux2_1
Xmux_right_track_34.mux_l2_in_0_ mux_right_track_34.mux_l2_in_0_/A0 mux_right_track_34.mux_l1_in_0_/X
+ hold14/A VGND VGND VPWR VPWR mux_right_track_34.mux_l2_in_0_/X sky130_fd_sc_hd__mux2_1
XFILLER_4_83 VGND VGND VPWR VPWR sky130_fd_sc_hd__fill_1
Xmux_right_track_8.sky130_fd_sc_hd__buf_4_0_ mux_right_track_8.mux_l2_in_0_/X VGND
+ VGND VPWR VPWR _52_/A sky130_fd_sc_hd__clkbuf_1
XFILLER_13_81 VGND VPWR VPWR VGND sky130_ef_sc_hd__decap_12
XFILLER_9_39 VGND VPWR VPWR VGND sky130_ef_sc_hd__decap_12
XFILLER_18_15 VGND VPWR VPWR VGND sky130_ef_sc_hd__decap_12
Xmux_right_track_36.mux_l2_in_0__97 VGND VGND VPWR VPWR mux_right_track_36.mux_l2_in_0_/A0
+ mux_right_track_36.mux_l2_in_0__97/LO sky130_fd_sc_hd__conb_1
XFILLER_27_3 VGND VGND VPWR VPWR sky130_fd_sc_hd__fill_2
XFILLER_24_80 VGND VGND VPWR VPWR sky130_fd_sc_hd__decap_4
Xhold14 hold14/A VGND VGND VPWR VPWR hold14/X sky130_fd_sc_hd__clkdlybuf4s25_1
XFILLER_28_101 VGND VPWR VPWR VGND sky130_ef_sc_hd__decap_12
Xhold36 hold36/A VGND VGND VPWR VPWR hold36/X sky130_fd_sc_hd__clkdlybuf4s25_1
Xhold25 hold25/A VGND VGND VPWR VPWR hold25/X sky130_fd_sc_hd__clkdlybuf4s25_1
XFILLER_20_49 VGND VGND VPWR VPWR sky130_fd_sc_hd__decap_3
XFILLER_20_27 VGND VGND VPWR VPWR sky130_fd_sc_hd__fill_1
XFILLER_1_51 VGND VGND VPWR VPWR sky130_fd_sc_hd__decap_4
XANTENNA_input51_A top_left_grid_pin_1_ VGND VGND VPWR VPWR sky130_fd_sc_hd__diode_2
XFILLER_28_189 VGND VGND VPWR VPWR sky130_fd_sc_hd__fill_2
XFILLER_19_189 VGND VGND VPWR VPWR sky130_fd_sc_hd__decap_6
XFILLER_19_178 VGND VGND VPWR VPWR sky130_fd_sc_hd__fill_2
XFILLER_19_167 VGND VGND VPWR VPWR sky130_fd_sc_hd__fill_1
XFILLER_19_101 VGND VGND VPWR VPWR sky130_fd_sc_hd__decap_8
XFILLER_10_93 VGND VGND VPWR VPWR sky130_fd_sc_hd__fill_1
XFILLER_6_29 VGND VPWR VPWR VGND sky130_ef_sc_hd__decap_12
Xmux_right_track_32.sky130_fd_sc_hd__buf_4_0_ mux_right_track_32.mux_l2_in_0_/X VGND
+ VGND VPWR VPWR _64_/A sky130_fd_sc_hd__clkbuf_1
XFILLER_15_27 VGND VPWR VPWR VGND sky130_ef_sc_hd__decap_12
Xoutput59 _63_/X VGND VGND VPWR VPWR chanx_right_out[15] sky130_fd_sc_hd__buf_2
XFILLER_0_203 VGND VGND VPWR VPWR sky130_fd_sc_hd__fill_2
XFILLER_30_184 VGND VGND VPWR VPWR sky130_fd_sc_hd__fill_2
XTAP_129 VGND VPWR sky130_fd_sc_hd__tapvpwrvgnd_1
XTAP_118 VGND VPWR sky130_fd_sc_hd__tapvpwrvgnd_1
XTAP_107 VGND VPWR sky130_fd_sc_hd__tapvpwrvgnd_1
XPHY_1 VGND VGND VPWR VPWR sky130_fd_sc_hd__decap_3
XFILLER_26_26 VGND VGND VPWR VPWR sky130_fd_sc_hd__fill_2
XFILLER_26_15 VGND VGND VPWR VPWR sky130_fd_sc_hd__fill_2
Xmux_right_track_26.sky130_fd_sc_hd__buf_4_0_ mux_right_track_26.mux_l2_in_0_/X VGND
+ VGND VPWR VPWR _61_/A sky130_fd_sc_hd__clkbuf_1
XFILLER_12_162 VGND VGND VPWR VPWR sky130_fd_sc_hd__decap_3
XANTENNA_input14_A chanx_right_in[2] VGND VGND VPWR VPWR sky130_fd_sc_hd__diode_2
XANTENNA_input6_A chanx_right_in[13] VGND VGND VPWR VPWR sky130_fd_sc_hd__diode_2
XFILLER_26_221 VGND VGND VPWR VPWR sky130_fd_sc_hd__fill_2
XFILLER_26_210 VGND VGND VPWR VPWR sky130_fd_sc_hd__fill_2
Xmem_right_track_18.sky130_fd_sc_hd__dfxtp_1_0_ clkbuf_2_1__f_mem_right_track_0.prog_clk/X
+ hold1/X VGND VGND VPWR VPWR hold27/A sky130_fd_sc_hd__dfxtp_1
XFILLER_17_221 VGND VGND VPWR VPWR sky130_fd_sc_hd__fill_2
XFILLER_5_125 VGND VPWR VPWR VGND sky130_ef_sc_hd__decap_12
XFILLER_5_169 VGND VPWR VPWR VGND sky130_ef_sc_hd__decap_12
XFILLER_23_27 VGND VGND VPWR VPWR sky130_fd_sc_hd__decap_6
XFILLER_2_139 VGND VGND VPWR VPWR sky130_fd_sc_hd__fill_1
XFILLER_29_7 VGND VGND VPWR VPWR sky130_fd_sc_hd__fill_2
XFILLER_13_93 VGND VPWR VPWR VGND sky130_ef_sc_hd__decap_12
XFILLER_1_161 VGND VGND VPWR VPWR sky130_fd_sc_hd__decap_6
Xmem_right_track_30.sky130_fd_sc_hd__dfxtp_1_1_ clkbuf_2_1__f_mem_right_track_0.prog_clk/X
+ hold29/X VGND VGND VPWR VPWR hold33/A sky130_fd_sc_hd__dfxtp_1
XFILLER_18_27 VGND VGND VPWR VPWR sky130_fd_sc_hd__fill_1
Xmux_right_track_34.mux_l1_in_0_ input42/X input29/X hold7/A VGND VGND VPWR VPWR mux_right_track_34.mux_l1_in_0_/X
+ sky130_fd_sc_hd__mux2_1
XFILLER_24_70 VGND VGND VPWR VPWR sky130_fd_sc_hd__fill_2
XFILLER_29_15 VGND VGND VPWR VPWR sky130_fd_sc_hd__fill_1
XFILLER_28_179 VGND VGND VPWR VPWR sky130_fd_sc_hd__fill_2
XFILLER_28_168 VGND VGND VPWR VPWR sky130_fd_sc_hd__fill_2
Xhold15 hold15/A VGND VGND VPWR VPWR hold15/X sky130_fd_sc_hd__clkdlybuf4s25_1
XFILLER_19_113 VGND VGND VPWR VPWR sky130_fd_sc_hd__fill_1