* NGSPICE file created from sb_0__2_.ext - technology: sky130A

* Black-box entry subcircuit for sky130_fd_sc_hd__tapvpwrvgnd_1 abstract view
.subckt sky130_fd_sc_hd__tapvpwrvgnd_1 VGND VPWR
.ends

* Black-box entry subcircuit for sky130_ef_sc_hd__decap_12 abstract view
.subckt sky130_ef_sc_hd__decap_12 VGND VPWR VPB VNB
.ends

* Black-box entry subcircuit for sky130_fd_sc_hd__dfxtp_1 abstract view
.subckt sky130_fd_sc_hd__dfxtp_1 CLK D VGND VNB VPB VPWR Q
.ends

* Black-box entry subcircuit for sky130_fd_sc_hd__fill_2 abstract view
.subckt sky130_fd_sc_hd__fill_2 VGND VNB VPB VPWR
.ends

* Black-box entry subcircuit for sky130_fd_sc_hd__decap_3 abstract view
.subckt sky130_fd_sc_hd__decap_3 VGND VNB VPB VPWR
.ends

* Black-box entry subcircuit for sky130_fd_sc_hd__clkbuf_1 abstract view
.subckt sky130_fd_sc_hd__clkbuf_1 A VGND VNB VPB VPWR X
.ends

* Black-box entry subcircuit for sky130_fd_sc_hd__decap_4 abstract view
.subckt sky130_fd_sc_hd__decap_4 VGND VNB VPB VPWR
.ends

* Black-box entry subcircuit for sky130_fd_sc_hd__diode_2 abstract view
.subckt sky130_fd_sc_hd__diode_2 DIODE VGND VNB VPB VPWR
.ends

* Black-box entry subcircuit for sky130_fd_sc_hd__fill_1 abstract view
.subckt sky130_fd_sc_hd__fill_1 VGND VNB VPB VPWR
.ends

* Black-box entry subcircuit for sky130_fd_sc_hd__decap_6 abstract view
.subckt sky130_fd_sc_hd__decap_6 VGND VNB VPB VPWR
.ends

* Black-box entry subcircuit for sky130_fd_sc_hd__clkdlybuf4s25_1 abstract view
.subckt sky130_fd_sc_hd__clkdlybuf4s25_1 A VGND VNB VPB VPWR X
.ends

* Black-box entry subcircuit for sky130_fd_sc_hd__buf_2 abstract view
.subckt sky130_fd_sc_hd__buf_2 A VGND VNB VPB VPWR X
.ends

* Black-box entry subcircuit for sky130_fd_sc_hd__mux2_1 abstract view
.subckt sky130_fd_sc_hd__mux2_1 A0 A1 S VGND VNB VPB VPWR X
.ends

* Black-box entry subcircuit for sky130_fd_sc_hd__clkbuf_2 abstract view
.subckt sky130_fd_sc_hd__clkbuf_2 A VGND VNB VPB VPWR X
.ends

* Black-box entry subcircuit for sky130_fd_sc_hd__conb_1 abstract view
.subckt sky130_fd_sc_hd__conb_1 VGND VNB VPB VPWR HI LO
.ends

* Black-box entry subcircuit for sky130_fd_sc_hd__buf_8 abstract view
.subckt sky130_fd_sc_hd__buf_8 A VGND VNB VPB VPWR X
.ends

* Black-box entry subcircuit for sky130_fd_sc_hd__decap_8 abstract view
.subckt sky130_fd_sc_hd__decap_8 VGND VNB VPB VPWR
.ends

* Black-box entry subcircuit for sky130_fd_sc_hd__clkbuf_16 abstract view
.subckt sky130_fd_sc_hd__clkbuf_16 A VGND VNB VPB VPWR X
.ends

* Black-box entry subcircuit for sky130_fd_sc_hd__dlymetal6s2s_1 abstract view
.subckt sky130_fd_sc_hd__dlymetal6s2s_1 A VGND VNB VPB VPWR X
.ends

.subckt sb_0__2_ SC_IN_TOP SC_OUT_BOT VGND VPWR bottom_left_grid_pin_1_ ccff_head
+ ccff_tail chanx_right_in[0] chanx_right_in[10] chanx_right_in[11] chanx_right_in[12]
+ chanx_right_in[13] chanx_right_in[14] chanx_right_in[15] chanx_right_in[16] chanx_right_in[17]
+ chanx_right_in[18] chanx_right_in[19] chanx_right_in[1] chanx_right_in[2] chanx_right_in[3]
+ chanx_right_in[4] chanx_right_in[5] chanx_right_in[6] chanx_right_in[7] chanx_right_in[8]
+ chanx_right_in[9] chanx_right_out[0] chanx_right_out[10] chanx_right_out[11] chanx_right_out[12]
+ chanx_right_out[13] chanx_right_out[14] chanx_right_out[15] chanx_right_out[16]
+ chanx_right_out[17] chanx_right_out[18] chanx_right_out[19] chanx_right_out[1] chanx_right_out[2]
+ chanx_right_out[3] chanx_right_out[4] chanx_right_out[5] chanx_right_out[6] chanx_right_out[7]
+ chanx_right_out[8] chanx_right_out[9] chany_bottom_in[0] chany_bottom_in[10] chany_bottom_in[11]
+ chany_bottom_in[12] chany_bottom_in[13] chany_bottom_in[14] chany_bottom_in[15]
+ chany_bottom_in[16] chany_bottom_in[17] chany_bottom_in[18] chany_bottom_in[19]
+ chany_bottom_in[1] chany_bottom_in[2] chany_bottom_in[3] chany_bottom_in[4] chany_bottom_in[5]
+ chany_bottom_in[6] chany_bottom_in[7] chany_bottom_in[8] chany_bottom_in[9] chany_bottom_out[0]
+ chany_bottom_out[10] chany_bottom_out[11] chany_bottom_out[12] chany_bottom_out[13]
+ chany_bottom_out[14] chany_bottom_out[15] chany_bottom_out[16] chany_bottom_out[17]
+ chany_bottom_out[18] chany_bottom_out[19] chany_bottom_out[1] chany_bottom_out[2]
+ chany_bottom_out[3] chany_bottom_out[4] chany_bottom_out[5] chany_bottom_out[6]
+ chany_bottom_out[7] chany_bottom_out[8] chany_bottom_out[9] prog_clk_0_E_in right_bottom_grid_pin_34_
+ right_bottom_grid_pin_35_ right_bottom_grid_pin_36_ right_bottom_grid_pin_37_ right_bottom_grid_pin_38_
+ right_bottom_grid_pin_39_ right_bottom_grid_pin_40_ right_bottom_grid_pin_41_ right_top_grid_pin_1_
XTAP_188 VGND VPWR sky130_fd_sc_hd__tapvpwrvgnd_1
XTAP_177 VGND VPWR sky130_fd_sc_hd__tapvpwrvgnd_1
XFILLER_22_100 VGND VPWR VPWR VGND sky130_ef_sc_hd__decap_12
Xmem_right_track_20.sky130_fd_sc_hd__dfxtp_1_1_ clkbuf_2_3__f_mem_bottom_track_1.prog_clk/X
+ hold17/X VGND VGND VPWR VPWR hold16/A sky130_fd_sc_hd__dfxtp_1
Xmem_right_track_2.sky130_fd_sc_hd__dfxtp_1_0_ clkbuf_2_2__f_mem_bottom_track_1.prog_clk/X
+ hold24/X VGND VGND VPWR VPWR mux_right_track_2.mux_l1_in_1_/S sky130_fd_sc_hd__dfxtp_1
XFILLER_26_85 VGND VPWR VPWR VGND sky130_ef_sc_hd__decap_12
XFILLER_26_41 VGND VPWR VPWR VGND sky130_ef_sc_hd__decap_12
XFILLER_13_166 VGND VGND VPWR VPWR sky130_fd_sc_hd__fill_2
XFILLER_9_137 VGND VGND VPWR VPWR sky130_fd_sc_hd__fill_2
XFILLER_9_104 VGND VGND VPWR VPWR sky130_fd_sc_hd__decap_3
XFILLER_3_34 VGND VGND VPWR VPWR sky130_fd_sc_hd__fill_2
X_83_ _83_/A VGND VGND VPWR VPWR _83_/X sky130_fd_sc_hd__clkbuf_1
XFILLER_12_65 VGND VGND VPWR VPWR sky130_fd_sc_hd__decap_4
X_66_ _66_/A VGND VGND VPWR VPWR _66_/X sky130_fd_sc_hd__clkbuf_1
XFILLER_5_184 VGND VGND VPWR VPWR sky130_fd_sc_hd__decap_3
Xmux_right_track_36.sky130_fd_sc_hd__buf_4_0_ mux_right_track_36.mux_l2_in_0_/X VGND
+ VGND VPWR VPWR _67_/A sky130_fd_sc_hd__clkbuf_1
XANTENNA_mux_right_track_4.mux_l1_in_0__A1 input52/X VGND VGND VPWR VPWR sky130_fd_sc_hd__diode_2
XFILLER_9_66 VGND VGND VPWR VPWR sky130_fd_sc_hd__fill_2
XFILLER_9_55 VGND VGND VPWR VPWR sky130_fd_sc_hd__fill_1
Xmem_right_track_8.sky130_fd_sc_hd__dfxtp_1_1_ clkbuf_2_0__f_mem_bottom_track_1.prog_clk/X
+ mux_right_track_8.mux_l1_in_1_/S VGND VGND VPWR VPWR hold36/A sky130_fd_sc_hd__dfxtp_1
X_49_ _49_/A VGND VGND VPWR VPWR _49_/X sky130_fd_sc_hd__clkbuf_1
XFILLER_18_97 VGND VPWR VPWR VGND sky130_ef_sc_hd__decap_12
XFILLER_18_53 VGND VPWR VPWR VGND sky130_ef_sc_hd__decap_12
XFILLER_29_106 VGND VGND VPWR VPWR sky130_fd_sc_hd__decap_6
Xhold30 hold30/A VGND VGND VPWR VPWR hold30/X sky130_fd_sc_hd__clkdlybuf4s25_1
XFILLER_20_65 VGND VPWR VPWR VGND sky130_ef_sc_hd__decap_12
Xhold41 hold41/A VGND VGND VPWR VPWR hold41/X sky130_fd_sc_hd__clkdlybuf4s25_1
XANTENNA_input18_A chanx_right_in[4] VGND VGND VPWR VPWR sky130_fd_sc_hd__diode_2
XFILLER_26_109 VGND VPWR VPWR VGND sky130_ef_sc_hd__decap_12
XFILLER_19_161 VGND VGND VPWR VPWR sky130_fd_sc_hd__fill_2
XFILLER_13_3 VGND VPWR VPWR VGND sky130_ef_sc_hd__decap_12
Xoutput64 _67_/X VGND VGND VPWR VPWR chanx_right_out[18] sky130_fd_sc_hd__buf_2
XFILLER_31_167 VGND VGND VPWR VPWR sky130_fd_sc_hd__fill_1
Xmux_right_track_38.mux_l1_in_0_ input34/X input50/X hold21/A VGND VGND VPWR VPWR
+ mux_right_track_38.mux_l1_in_0_/X sky130_fd_sc_hd__mux2_1
XFILLER_16_164 VGND VGND VPWR VPWR sky130_fd_sc_hd__decap_3
Xoutput53 _48_/X VGND VGND VPWR VPWR SC_OUT_BOT sky130_fd_sc_hd__buf_2
Xoutput86 _70_/X VGND VGND VPWR VPWR chany_bottom_out[1] sky130_fd_sc_hd__buf_2
Xoutput75 _69_/X VGND VGND VPWR VPWR chany_bottom_out[0] sky130_fd_sc_hd__buf_2
XTAP_189 VGND VPWR sky130_fd_sc_hd__tapvpwrvgnd_1
XTAP_178 VGND VPWR sky130_fd_sc_hd__tapvpwrvgnd_1
XTAP_167 VGND VPWR sky130_fd_sc_hd__tapvpwrvgnd_1
XTAP_156 VGND VPWR sky130_fd_sc_hd__tapvpwrvgnd_1
XFILLER_22_189 VGND VGND VPWR VPWR sky130_fd_sc_hd__fill_2
XFILLER_22_112 VGND VPWR VPWR VGND sky130_ef_sc_hd__decap_12
XTAP_145 VGND VPWR sky130_fd_sc_hd__tapvpwrvgnd_1
XTAP_134 VGND VPWR sky130_fd_sc_hd__tapvpwrvgnd_1
XTAP_123 VGND VPWR sky130_fd_sc_hd__tapvpwrvgnd_1
Xmem_right_track_20.sky130_fd_sc_hd__dfxtp_1_0_ clkbuf_2_3__f_mem_bottom_track_1.prog_clk/X
+ hold2/X VGND VGND VPWR VPWR hold17/A sky130_fd_sc_hd__dfxtp_1
XTAP_112 VGND VPWR sky130_fd_sc_hd__tapvpwrvgnd_1
XTAP_101 VGND VPWR sky130_fd_sc_hd__tapvpwrvgnd_1
XFILLER_26_97 VGND VPWR VPWR VGND sky130_ef_sc_hd__decap_12
XFILLER_26_53 VGND VPWR VPWR VGND sky130_ef_sc_hd__decap_12
XFILLER_13_189 VGND VGND VPWR VPWR sky130_fd_sc_hd__fill_2
XFILLER_13_178 VGND VGND VPWR VPWR sky130_fd_sc_hd__fill_2
XFILLER_3_57 VGND VGND VPWR VPWR sky130_fd_sc_hd__fill_2
XFILLER_27_215 VGND VGND VPWR VPWR sky130_fd_sc_hd__fill_2
X_82_ _82_/A VGND VGND VPWR VPWR _82_/X sky130_fd_sc_hd__clkbuf_1
XFILLER_5_5 VGND VPWR VPWR VGND sky130_ef_sc_hd__decap_12
X_65_ _65_/A VGND VGND VPWR VPWR _65_/X sky130_fd_sc_hd__clkbuf_1
XFILLER_5_196 VGND VGND VPWR VPWR sky130_fd_sc_hd__fill_2
Xmem_right_track_8.sky130_fd_sc_hd__dfxtp_1_0_ clkbuf_2_0__f_mem_bottom_track_1.prog_clk/X
+ hold3/X VGND VGND VPWR VPWR mux_right_track_8.mux_l1_in_1_/S sky130_fd_sc_hd__dfxtp_1
XFILLER_2_144 VGND VGND VPWR VPWR sky130_fd_sc_hd__fill_2
XANTENNA_input48_A right_bottom_grid_pin_38_ VGND VGND VPWR VPWR sky130_fd_sc_hd__diode_2
Xmem_right_track_26.sky130_fd_sc_hd__dfxtp_1_1_ clkbuf_2_0__f_mem_bottom_track_1.prog_clk/X
+ hold35/X VGND VGND VPWR VPWR hold31/A sky130_fd_sc_hd__dfxtp_1
X_48_ _48_/A VGND VGND VPWR VPWR _48_/X sky130_fd_sc_hd__clkbuf_2
XFILLER_20_221 VGND VGND VPWR VPWR sky130_fd_sc_hd__fill_2
XFILLER_18_65 VGND VPWR VPWR VGND sky130_ef_sc_hd__decap_12
XFILLER_11_221 VGND VGND VPWR VPWR sky130_fd_sc_hd__fill_2
Xmem_bottom_track_25.sky130_fd_sc_hd__dfxtp_1_1_ clkbuf_2_3__f_mem_bottom_track_1.prog_clk/X
+ hold25/X VGND VGND VPWR VPWR output54/A sky130_fd_sc_hd__dfxtp_1
XFILLER_20_77 VGND VGND VPWR VPWR sky130_fd_sc_hd__decap_6
Xhold20 hold20/A VGND VGND VPWR VPWR hold20/X sky130_fd_sc_hd__clkdlybuf4s25_1
Xhold31 hold31/A VGND VGND VPWR VPWR hold31/X sky130_fd_sc_hd__clkdlybuf4s25_1
Xhold42 hold42/A VGND VGND VPWR VPWR hold42/X sky130_fd_sc_hd__clkdlybuf4s25_1
XFILLER_28_195 VGND VGND VPWR VPWR sky130_fd_sc_hd__fill_1
XFILLER_6_46 VGND VGND VPWR VPWR sky130_fd_sc_hd__fill_2
XFILLER_15_55 VGND VGND VPWR VPWR sky130_fd_sc_hd__fill_1
XFILLER_1_209 VGND VGND VPWR VPWR sky130_fd_sc_hd__fill_2
Xoutput65 _68_/X VGND VGND VPWR VPWR chanx_right_out[19] sky130_fd_sc_hd__buf_2
XFILLER_31_113 VGND VPWR VPWR VGND sky130_ef_sc_hd__decap_12
Xoutput54 output54/A VGND VGND VPWR VPWR ccff_tail sky130_fd_sc_hd__buf_2
XFILLER_16_121 VGND VGND VPWR VPWR sky130_fd_sc_hd__fill_1
Xoutput76 _79_/X VGND VGND VPWR VPWR chany_bottom_out[10] sky130_fd_sc_hd__buf_2
Xoutput87 _71_/X VGND VGND VPWR VPWR chany_bottom_out[2] sky130_fd_sc_hd__buf_2
XANTENNA_input30_A chany_bottom_in[15] VGND VGND VPWR VPWR sky130_fd_sc_hd__diode_2
XTAP_179 VGND VPWR sky130_fd_sc_hd__tapvpwrvgnd_1
XTAP_168 VGND VPWR sky130_fd_sc_hd__tapvpwrvgnd_1
XTAP_157 VGND VPWR sky130_fd_sc_hd__tapvpwrvgnd_1
XFILLER_22_179 VGND VGND VPWR VPWR sky130_fd_sc_hd__fill_2
XFILLER_22_124 VGND VPWR VPWR VGND sky130_ef_sc_hd__decap_12
XTAP_146 VGND VPWR sky130_fd_sc_hd__tapvpwrvgnd_1
XTAP_135 VGND VPWR sky130_fd_sc_hd__tapvpwrvgnd_1
XTAP_124 VGND VPWR sky130_fd_sc_hd__tapvpwrvgnd_1
XTAP_113 VGND VPWR sky130_fd_sc_hd__tapvpwrvgnd_1
XTAP_102 VGND VPWR sky130_fd_sc_hd__tapvpwrvgnd_1
XFILLER_26_65 VGND VPWR VPWR VGND sky130_ef_sc_hd__decap_12
XFILLER_13_157 VGND VGND VPWR VPWR sky130_fd_sc_hd__fill_2
XFILLER_8_194 VGND VGND VPWR VPWR sky130_fd_sc_hd__fill_2
X_81_ _81_/A VGND VGND VPWR VPWR _81_/X sky130_fd_sc_hd__clkbuf_1
XFILLER_3_14 VGND VGND VPWR VPWR sky130_fd_sc_hd__fill_2
XFILLER_10_138 VGND VGND VPWR VPWR sky130_fd_sc_hd__fill_2
X_64_ _64_/A VGND VGND VPWR VPWR _64_/X sky130_fd_sc_hd__clkbuf_1
XFILLER_15_219 VGND VGND VPWR VPWR sky130_fd_sc_hd__decap_4
XFILLER_15_208 VGND VGND VPWR VPWR sky130_fd_sc_hd__fill_2
XFILLER_23_55 VGND VGND VPWR VPWR sky130_fd_sc_hd__fill_1
Xmux_right_track_18.mux_l2_in_0__117 VGND VGND VPWR VPWR mux_right_track_18.mux_l2_in_0_/A0
+ mux_right_track_18.mux_l2_in_0__117/LO sky130_fd_sc_hd__conb_1
XFILLER_0_59 VGND VGND VPWR VPWR sky130_fd_sc_hd__fill_2
XFILLER_0_26 VGND VGND VPWR VPWR sky130_fd_sc_hd__fill_2
Xmem_right_track_26.sky130_fd_sc_hd__dfxtp_1_0_ clkbuf_2_0__f_mem_bottom_track_1.prog_clk/X
+ hold32/X VGND VGND VPWR VPWR hold35/A sky130_fd_sc_hd__dfxtp_1
XFILLER_20_211 VGND VGND VPWR VPWR sky130_fd_sc_hd__fill_2
XFILLER_9_57 VGND VGND VPWR VPWR sky130_fd_sc_hd__fill_2
XFILLER_18_77 VGND VGND VPWR VPWR sky130_fd_sc_hd__decap_6
XFILLER_7_215 VGND VGND VPWR VPWR sky130_fd_sc_hd__fill_2
XFILLER_7_204 VGND VGND VPWR VPWR sky130_fd_sc_hd__fill_2
Xmem_bottom_track_25.sky130_fd_sc_hd__dfxtp_1_0_ clkbuf_2_3__f_mem_bottom_track_1.prog_clk/X
+ hold26/X VGND VGND VPWR VPWR hold25/A sky130_fd_sc_hd__dfxtp_1
XFILLER_28_141 VGND VPWR VPWR VGND sky130_ef_sc_hd__decap_12
Xhold21 hold21/A VGND VGND VPWR VPWR hold21/X sky130_fd_sc_hd__clkdlybuf4s25_1
Xhold10 hold10/A VGND VGND VPWR VPWR hold10/X sky130_fd_sc_hd__clkdlybuf4s25_1
Xhold32 hold32/A VGND VGND VPWR VPWR hold32/X sky130_fd_sc_hd__clkdlybuf4s25_1
XFILLER_31_55 VGND VGND VPWR VPWR sky130_fd_sc_hd__fill_1
XFILLER_25_111 VGND VGND VPWR VPWR sky130_fd_sc_hd__fill_1
Xoutput66 _50_/X VGND VGND VPWR VPWR chanx_right_out[1] sky130_fd_sc_hd__buf_2
Xoutput55 _49_/X VGND VGND VPWR VPWR chanx_right_out[0] sky130_fd_sc_hd__buf_2
XFILLER_16_144 VGND VGND VPWR VPWR sky130_fd_sc_hd__decap_4
XFILLER_16_133 VGND VGND VPWR VPWR sky130_fd_sc_hd__fill_2
Xoutput88 _72_/X VGND VGND VPWR VPWR chany_bottom_out[3] sky130_fd_sc_hd__buf_2
XFILLER_0_221 VGND VGND VPWR VPWR sky130_fd_sc_hd__fill_2
XANTENNA_input23_A chanx_right_in[9] VGND VGND VPWR VPWR sky130_fd_sc_hd__diode_2
Xoutput77 _80_/X VGND VGND VPWR VPWR chany_bottom_out[11] sky130_fd_sc_hd__buf_2
XFILLER_31_169 VGND VPWR VPWR VGND sky130_ef_sc_hd__decap_12
XFILLER_31_125 VGND VPWR VPWR VGND sky130_ef_sc_hd__decap_12
XTAP_169 VGND VPWR sky130_fd_sc_hd__tapvpwrvgnd_1
XTAP_158 VGND VPWR sky130_fd_sc_hd__tapvpwrvgnd_1
XFILLER_22_136 VGND VGND VPWR VPWR sky130_fd_sc_hd__decap_4
XTAP_147 VGND VPWR sky130_fd_sc_hd__tapvpwrvgnd_1
XTAP_136 VGND VPWR sky130_fd_sc_hd__tapvpwrvgnd_1
XTAP_125 VGND VPWR sky130_fd_sc_hd__tapvpwrvgnd_1
XTAP_114 VGND VPWR sky130_fd_sc_hd__tapvpwrvgnd_1
XTAP_103 VGND VPWR sky130_fd_sc_hd__tapvpwrvgnd_1
XFILLER_26_77 VGND VGND VPWR VPWR sky130_fd_sc_hd__decap_6
XFILLER_21_180 VGND VGND VPWR VPWR sky130_fd_sc_hd__decap_3
XFILLER_13_147 VGND VGND VPWR VPWR sky130_fd_sc_hd__fill_2
XFILLER_13_136 VGND VGND VPWR VPWR sky130_fd_sc_hd__fill_2
XFILLER_21_191 VGND VGND VPWR VPWR sky130_fd_sc_hd__fill_2
X_80_ _80_/A VGND VGND VPWR VPWR _80_/X sky130_fd_sc_hd__clkbuf_1
XFILLER_8_184 VGND VGND VPWR VPWR sky130_fd_sc_hd__fill_2
XFILLER_8_173 VGND VGND VPWR VPWR sky130_fd_sc_hd__fill_2
XFILLER_8_162 VGND VGND VPWR VPWR sky130_fd_sc_hd__fill_2
XFILLER_8_151 VGND VGND VPWR VPWR sky130_fd_sc_hd__fill_2
XFILLER_3_26 VGND VGND VPWR VPWR sky130_fd_sc_hd__fill_2
XFILLER_10_128 VGND VGND VPWR VPWR sky130_fd_sc_hd__fill_2
XFILLER_33_209 VGND VGND VPWR VPWR sky130_fd_sc_hd__fill_2
XFILLER_5_110 VGND VGND VPWR VPWR sky130_fd_sc_hd__fill_2
X_63_ _63_/A VGND VGND VPWR VPWR _63_/X sky130_fd_sc_hd__clkbuf_1
XANTENNA_output54_A output54/A VGND VGND VPWR VPWR sky130_fd_sc_hd__diode_2
Xprog_clk_0_FTB00 prog_clk_0_E_in VGND VGND VPWR VPWR prog_clk_0_FTB00/X sky130_fd_sc_hd__buf_8
XFILLER_0_16 VGND VGND VPWR VPWR sky130_fd_sc_hd__fill_2
XFILLER_2_113 VGND VGND VPWR VPWR sky130_fd_sc_hd__decap_3
XFILLER_29_3 VGND VPWR VPWR VGND sky130_ef_sc_hd__decap_12
Xmux_right_track_10.mux_l2_in_0_ mux_right_track_10.mux_l2_in_0_/A0 mux_right_track_10.mux_l1_in_0_/X
+ hold42/A VGND VGND VPWR VPWR mux_right_track_10.mux_l2_in_0_/X sky130_fd_sc_hd__mux2_1
XFILLER_1_92 VGND VGND VPWR VPWR sky130_fd_sc_hd__fill_2
XFILLER_1_70 VGND VGND VPWR VPWR sky130_fd_sc_hd__fill_2
XFILLER_29_77 VGND VGND VPWR VPWR sky130_fd_sc_hd__fill_2
XFILLER_29_55 VGND VGND VPWR VPWR sky130_fd_sc_hd__fill_1
XFILLER_28_197 VGND VGND VPWR VPWR sky130_fd_sc_hd__decap_8
XFILLER_28_153 VGND VPWR VPWR VGND sky130_ef_sc_hd__decap_12
Xhold33 hold33/A VGND VGND VPWR VPWR hold33/X sky130_fd_sc_hd__clkdlybuf4s25_1
Xhold22 hold22/A VGND VGND VPWR VPWR hold22/X sky130_fd_sc_hd__clkdlybuf4s25_1
Xhold11 hold11/A VGND VGND VPWR VPWR hold11/X sky130_fd_sc_hd__clkdlybuf4s25_1
XFILLER_6_15 VGND VPWR VPWR VGND sky130_ef_sc_hd__decap_12
XFILLER_6_37 VGND VGND VPWR VPWR sky130_fd_sc_hd__fill_2
Xoutput56 _59_/X VGND VGND VPWR VPWR chanx_right_out[10] sky130_fd_sc_hd__buf_2
XFILLER_25_167 VGND VGND VPWR VPWR sky130_fd_sc_hd__fill_1
XFILLER_25_145 VGND VGND VPWR VPWR sky130_fd_sc_hd__fill_1
Xoutput67 _51_/X VGND VGND VPWR VPWR chanx_right_out[2] sky130_fd_sc_hd__buf_2
XFILLER_15_57 VGND VPWR VPWR VGND sky130_ef_sc_hd__decap_12
Xoutput78 _81_/X VGND VGND VPWR VPWR chany_bottom_out[12] sky130_fd_sc_hd__buf_2
Xoutput89 _73_/X VGND VGND VPWR VPWR chany_bottom_out[4] sky130_fd_sc_hd__buf_2
XFILLER_31_137 VGND VPWR VPWR VGND sky130_ef_sc_hd__decap_12
XTAP_159 VGND VPWR sky130_fd_sc_hd__tapvpwrvgnd_1
XTAP_148 VGND VPWR sky130_fd_sc_hd__tapvpwrvgnd_1
XTAP_137 VGND VPWR sky130_fd_sc_hd__tapvpwrvgnd_1
XANTENNA_input16_A chanx_right_in[2] VGND VGND VPWR VPWR sky130_fd_sc_hd__diode_2
Xmux_right_track_34.mux_l2_in_0__102 VGND VGND VPWR VPWR mux_right_track_34.mux_l2_in_0_/A0
+ mux_right_track_34.mux_l2_in_0__102/LO sky130_fd_sc_hd__conb_1
XTAP_126 VGND VPWR sky130_fd_sc_hd__tapvpwrvgnd_1
XTAP_115 VGND VPWR sky130_fd_sc_hd__tapvpwrvgnd_1
XFILLER_11_3 VGND VPWR VPWR VGND sky130_ef_sc_hd__decap_12
XTAP_104 VGND VPWR sky130_fd_sc_hd__tapvpwrvgnd_1
XANTENNA_input8_A chanx_right_in[13] VGND VGND VPWR VPWR sky130_fd_sc_hd__diode_2
XFILLER_9_119 VGND VGND VPWR VPWR sky130_fd_sc_hd__fill_2
XFILLER_3_49 VGND VGND VPWR VPWR sky130_fd_sc_hd__fill_2
XFILLER_27_207 VGND VGND VPWR VPWR sky130_fd_sc_hd__decap_4
XFILLER_8_141 VGND VGND VPWR VPWR sky130_fd_sc_hd__fill_2
XFILLER_32_221 VGND VGND VPWR VPWR sky130_fd_sc_hd__fill_2
X_62_ _62_/A VGND VGND VPWR VPWR _62_/X sky130_fd_sc_hd__clkbuf_1
XFILLER_5_166 VGND VGND VPWR VPWR sky130_fd_sc_hd__fill_2
XFILLER_23_221 VGND VGND VPWR VPWR sky130_fd_sc_hd__fill_2
XFILLER_23_210 VGND VGND VPWR VPWR sky130_fd_sc_hd__fill_2
XFILLER_23_57 VGND VPWR VPWR VGND sky130_ef_sc_hd__decap_12
Xmem_bottom_track_9.sky130_fd_sc_hd__dfxtp_1_1_ clkbuf_2_3__f_mem_bottom_track_1.prog_clk/X
+ hold20/X VGND VGND VPWR VPWR hold26/A sky130_fd_sc_hd__dfxtp_1
Xmux_right_track_2.mux_l2_in_1__118 VGND VGND VPWR VPWR mux_right_track_2.mux_l2_in_1_/A0
+ mux_right_track_2.mux_l2_in_1__118/LO sky130_fd_sc_hd__conb_1
XFILLER_3_5 VGND VGND VPWR VPWR sky130_fd_sc_hd__decap_3
XFILLER_4_92 VGND VGND VPWR VPWR sky130_fd_sc_hd__fill_2
XFILLER_14_221 VGND VGND VPWR VPWR sky130_fd_sc_hd__fill_2
XFILLER_9_15 VGND VPWR VPWR VGND sky130_ef_sc_hd__decap_12
XFILLER_0_39 VGND VGND VPWR VPWR sky130_fd_sc_hd__fill_2
XFILLER_11_202 VGND VGND VPWR VPWR sky130_fd_sc_hd__decap_3
XANTENNA_input46_A right_bottom_grid_pin_36_ VGND VGND VPWR VPWR sky130_fd_sc_hd__diode_2
XFILLER_1_60 VGND VGND VPWR VPWR sky130_fd_sc_hd__fill_2
XFILLER_28_165 VGND VPWR VPWR VGND sky130_ef_sc_hd__decap_12
Xhold34 hold34/A VGND VGND VPWR VPWR hold34/X sky130_fd_sc_hd__clkdlybuf4s25_1
Xhold12 hold12/A VGND VGND VPWR VPWR hold12/X sky130_fd_sc_hd__clkdlybuf4s25_1
XFILLER_4_209 VGND VGND VPWR VPWR sky130_fd_sc_hd__fill_2
Xhold23 hold23/A VGND VGND VPWR VPWR hold23/X sky130_fd_sc_hd__clkdlybuf4s25_1
XFILLER_19_154 VGND VGND VPWR VPWR sky130_fd_sc_hd__decap_4
XFILLER_6_27 VGND VGND VPWR VPWR sky130_fd_sc_hd__fill_1
XFILLER_31_57 VGND VPWR VPWR VGND sky130_ef_sc_hd__decap_12
Xoutput57 _60_/X VGND VGND VPWR VPWR chanx_right_out[11] sky130_fd_sc_hd__buf_2
XFILLER_25_113 VGND VPWR VPWR VGND sky130_ef_sc_hd__decap_12
XFILLER_15_69 VGND VPWR VPWR VGND sky130_ef_sc_hd__decap_12
Xmem_right_track_12.sky130_fd_sc_hd__dfxtp_1_1_ clkbuf_2_0__f_mem_bottom_track_1.prog_clk/X
+ hold38/X VGND VGND VPWR VPWR hold28/A sky130_fd_sc_hd__dfxtp_1
XFILLER_31_149 VGND VPWR VPWR VGND sky130_ef_sc_hd__decap_12
XFILLER_31_105 VGND VGND VPWR VPWR sky130_fd_sc_hd__decap_6
Xoutput68 _52_/X VGND VGND VPWR VPWR chanx_right_out[3] sky130_fd_sc_hd__buf_2
XTAP_149 VGND VPWR sky130_fd_sc_hd__tapvpwrvgnd_1
XTAP_138 VGND VPWR sky130_fd_sc_hd__tapvpwrvgnd_1
XFILLER_16_124 VGND VGND VPWR VPWR sky130_fd_sc_hd__fill_2
XTAP_127 VGND VPWR sky130_fd_sc_hd__tapvpwrvgnd_1
XTAP_116 VGND VPWR sky130_fd_sc_hd__tapvpwrvgnd_1
Xoutput79 _82_/X VGND VGND VPWR VPWR chany_bottom_out[13] sky130_fd_sc_hd__buf_2
XTAP_105 VGND VPWR sky130_fd_sc_hd__tapvpwrvgnd_1
Xmux_right_track_10.mux_l1_in_0_ input28/X input44/X hold29/A VGND VGND VPWR VPWR
+ mux_right_track_10.mux_l1_in_0_/X sky130_fd_sc_hd__mux2_1
Xmux_right_track_8.mux_l2_in_0_ mux_right_track_8.mux_l1_in_1_/X mux_right_track_8.mux_l1_in_0_/X
+ hold36/A VGND VGND VPWR VPWR mux_right_track_8.mux_l2_in_0_/X sky130_fd_sc_hd__mux2_1
Xmux_right_track_22.mux_l2_in_0_ mux_right_track_22.mux_l2_in_0_/A0 mux_right_track_22.mux_l1_in_0_/X
+ hold15/A VGND VGND VPWR VPWR mux_right_track_22.mux_l2_in_0_/X sky130_fd_sc_hd__mux2_1
XFILLER_21_171 VGND VGND VPWR VPWR sky130_fd_sc_hd__fill_2
XFILLER_3_39 VGND VGND VPWR VPWR sky130_fd_sc_hd__fill_2
XFILLER_12_15 VGND VPWR VPWR VGND sky130_ef_sc_hd__decap_12
Xmux_right_track_8.mux_l1_in_1_ mux_right_track_8.mux_l1_in_1_/A0 input29/X mux_right_track_8.mux_l1_in_1_/S
+ VGND VGND VPWR VPWR mux_right_track_8.mux_l1_in_1_/X sky130_fd_sc_hd__mux2_1
X_61_ _61_/A VGND VGND VPWR VPWR _61_/X sky130_fd_sc_hd__clkbuf_1
XFILLER_5_178 VGND VGND VPWR VPWR sky130_fd_sc_hd__fill_2
XFILLER_23_200 VGND VGND VPWR VPWR sky130_fd_sc_hd__fill_2
XFILLER_23_69 VGND VPWR VPWR VGND sky130_ef_sc_hd__decap_12
XFILLER_4_60 VGND VGND VPWR VPWR sky130_fd_sc_hd__fill_2
XFILLER_4_71 VGND VGND VPWR VPWR sky130_fd_sc_hd__fill_2
XFILLER_4_82 VGND VGND VPWR VPWR sky130_fd_sc_hd__fill_2
Xmem_bottom_track_9.sky130_fd_sc_hd__dfxtp_1_0_ clkbuf_2_3__f_mem_bottom_track_1.prog_clk/X
+ hold30/X VGND VGND VPWR VPWR hold20/A sky130_fd_sc_hd__dfxtp_1
Xmux_right_track_0.mux_l2_in_1__112 VGND VGND VPWR VPWR mux_right_track_0.mux_l2_in_1_/A0
+ mux_right_track_0.mux_l2_in_1__112/LO sky130_fd_sc_hd__conb_1
XFILLER_9_27 VGND VPWR VPWR VGND sky130_ef_sc_hd__decap_12
XFILLER_0_29 VGND VGND VPWR VPWR sky130_fd_sc_hd__fill_2
XANTENNA_input39_A chany_bottom_in[5] VGND VGND VPWR VPWR sky130_fd_sc_hd__diode_2
Xmux_right_track_10.sky130_fd_sc_hd__buf_4_0_ mux_right_track_10.mux_l2_in_0_/X VGND
+ VGND VPWR VPWR _54_/A sky130_fd_sc_hd__clkbuf_1
XFILLER_29_57 VGND VPWR VPWR VGND sky130_ef_sc_hd__decap_12
XFILLER_28_177 VGND VPWR VPWR VGND sky130_ef_sc_hd__decap_12
XFILLER_20_15 VGND VPWR VPWR VGND sky130_ef_sc_hd__decap_12
Xhold13 hold13/A VGND VGND VPWR VPWR hold13/X sky130_fd_sc_hd__clkdlybuf4s25_1
Xhold24 hold24/A VGND VGND VPWR VPWR hold24/X sky130_fd_sc_hd__clkdlybuf4s25_1
Xhold35 hold35/A VGND VGND VPWR VPWR hold35/X sky130_fd_sc_hd__clkdlybuf4s25_1
XFILLER_19_166 VGND VGND VPWR VPWR sky130_fd_sc_hd__fill_2
XFILLER_19_111 VGND VGND VPWR VPWR sky130_fd_sc_hd__fill_1
XFILLER_3_221 VGND VGND VPWR VPWR sky130_fd_sc_hd__fill_2
XFILLER_33_191 VGND VGND VPWR VPWR sky130_fd_sc_hd__fill_1
XFILLER_25_169 VGND VPWR VPWR VGND sky130_ef_sc_hd__decap_12
XFILLER_25_125 VGND VPWR VPWR VGND sky130_ef_sc_hd__decap_12
XFILLER_15_15 VGND VPWR VPWR VGND sky130_ef_sc_hd__decap_12
Xmem_right_track_12.sky130_fd_sc_hd__dfxtp_1_0_ clkbuf_2_0__f_mem_bottom_track_1.prog_clk/X
+ hold42/X VGND VGND VPWR VPWR hold38/A sky130_fd_sc_hd__dfxtp_1
Xoutput58 _61_/X VGND VGND VPWR VPWR chanx_right_out[12] sky130_fd_sc_hd__buf_2
XFILLER_31_69 VGND VPWR VPWR VGND sky130_ef_sc_hd__decap_12
Xoutput69 _53_/X VGND VGND VPWR VPWR chanx_right_out[4] sky130_fd_sc_hd__buf_2
XTAP_139 VGND VPWR sky130_fd_sc_hd__tapvpwrvgnd_1
XTAP_128 VGND VPWR sky130_fd_sc_hd__tapvpwrvgnd_1
XTAP_117 VGND VPWR sky130_fd_sc_hd__tapvpwrvgnd_1
XTAP_106 VGND VPWR sky130_fd_sc_hd__tapvpwrvgnd_1
XPHY_0 VGND VGND VPWR VPWR sky130_fd_sc_hd__decap_3
XFILLER_7_60 VGND VGND VPWR VPWR sky130_fd_sc_hd__fill_2
XFILLER_7_93 VGND VGND VPWR VPWR sky130_fd_sc_hd__decap_4
XFILLER_3_18 VGND VGND VPWR VPWR sky130_fd_sc_hd__fill_2
XANTENNA_mux_bottom_track_25.mux_l1_in_0__A0 input2/X VGND VGND VPWR VPWR sky130_fd_sc_hd__diode_2
XFILLER_12_194 VGND VGND VPWR VPWR sky130_fd_sc_hd__fill_2
XFILLER_12_183 VGND VGND VPWR VPWR sky130_fd_sc_hd__fill_2
XANTENNA_input21_A chanx_right_in[7] VGND VGND VPWR VPWR sky130_fd_sc_hd__diode_2
XFILLER_12_27 VGND VGND VPWR VPWR sky130_fd_sc_hd__fill_1
Xmux_right_track_8.mux_l1_in_0_ input51/X input52/X mux_right_track_8.mux_l1_in_1_/S
+ VGND VGND VPWR VPWR mux_right_track_8.mux_l1_in_0_/X sky130_fd_sc_hd__mux2_1
X_60_ _60_/A VGND VGND VPWR VPWR _60_/X sky130_fd_sc_hd__clkbuf_1
Xmem_right_track_18.sky130_fd_sc_hd__dfxtp_1_1_ clkbuf_2_1__f_mem_bottom_track_1.prog_clk/X
+ hold12/X VGND VGND VPWR VPWR hold2/A sky130_fd_sc_hd__dfxtp_1
Xmux_right_track_22.mux_l1_in_0_ input41/X input50/X hold9/A VGND VGND VPWR VPWR mux_right_track_22.mux_l1_in_0_/X
+ sky130_fd_sc_hd__mux2_1
XFILLER_5_113 VGND VGND VPWR VPWR sky130_fd_sc_hd__fill_2
XFILLER_23_15 VGND VPWR VPWR VGND sky130_ef_sc_hd__decap_12
Xmux_right_track_34.mux_l2_in_0_ mux_right_track_34.mux_l2_in_0_/A0 mux_right_track_34.mux_l1_in_0_/X
+ hold1/A VGND VGND VPWR VPWR mux_right_track_34.mux_l2_in_0_/X sky130_fd_sc_hd__mux2_1
XFILLER_4_50 VGND VGND VPWR VPWR sky130_fd_sc_hd__fill_2
Xmux_right_track_8.sky130_fd_sc_hd__buf_4_0_ mux_right_track_8.mux_l2_in_0_/X VGND
+ VGND VPWR VPWR _53_/A sky130_fd_sc_hd__clkbuf_1
XFILLER_13_92 VGND VGND VPWR VPWR sky130_fd_sc_hd__fill_2
XFILLER_13_81 VGND VGND VPWR VPWR sky130_fd_sc_hd__fill_2
XFILLER_9_39 VGND VPWR VPWR VGND sky130_ef_sc_hd__decap_12
XFILLER_2_138 VGND VGND VPWR VPWR sky130_fd_sc_hd__fill_2
XFILLER_18_15 VGND VPWR VPWR VGND sky130_ef_sc_hd__decap_12
XFILLER_27_3 VGND VPWR VPWR VGND sky130_ef_sc_hd__decap_12
XFILLER_29_69 VGND VGND VPWR VPWR sky130_fd_sc_hd__decap_8
Xhold25 hold25/A VGND VGND VPWR VPWR hold25/X sky130_fd_sc_hd__clkdlybuf4s25_1
XFILLER_20_27 VGND VGND VPWR VPWR sky130_fd_sc_hd__fill_1
Xhold14 hold14/A VGND VGND VPWR VPWR hold14/X sky130_fd_sc_hd__clkdlybuf4s25_1
Xhold36 hold36/A VGND VGND VPWR VPWR hold36/X sky130_fd_sc_hd__clkdlybuf4s25_1
XFILLER_28_189 VGND VGND VPWR VPWR sky130_fd_sc_hd__decap_6
XFILLER_19_189 VGND VGND VPWR VPWR sky130_fd_sc_hd__decap_3
XFILLER_19_178 VGND VGND VPWR VPWR sky130_fd_sc_hd__fill_2
XFILLER_10_82 VGND VGND VPWR VPWR sky130_fd_sc_hd__fill_2
XANTENNA_input51_A right_bottom_grid_pin_41_ VGND VGND VPWR VPWR sky130_fd_sc_hd__diode_2
XFILLER_6_29 VGND VGND VPWR VPWR sky130_fd_sc_hd__decap_8
Xmux_right_track_32.sky130_fd_sc_hd__buf_4_0_ mux_right_track_32.mux_l2_in_0_/X VGND
+ VGND VPWR VPWR _65_/A sky130_fd_sc_hd__clkbuf_1
XFILLER_25_137 VGND VGND VPWR VPWR sky130_fd_sc_hd__decap_8
XFILLER_15_27 VGND VPWR VPWR VGND sky130_ef_sc_hd__decap_12
Xoutput59 _62_/X VGND VGND VPWR VPWR chanx_right_out[13] sky130_fd_sc_hd__buf_2
XFILLER_31_15 VGND VPWR VPWR VGND sky130_ef_sc_hd__decap_12
XFILLER_30_195 VGND VGND VPWR VPWR sky130_fd_sc_hd__fill_1
XFILLER_21_81 VGND VPWR VPWR VGND sky130_ef_sc_hd__decap_12
XTAP_129 VGND VPWR sky130_fd_sc_hd__tapvpwrvgnd_1
XTAP_118 VGND VPWR sky130_fd_sc_hd__tapvpwrvgnd_1
XTAP_107 VGND VPWR sky130_fd_sc_hd__tapvpwrvgnd_1
XPHY_1 VGND VGND VPWR VPWR sky130_fd_sc_hd__decap_3
XFILLER_26_15 VGND VPWR VPWR VGND sky130_ef_sc_hd__decap_12
XFILLER_21_140 VGND VPWR VPWR VGND sky130_ef_sc_hd__decap_12
XFILLER_13_129 VGND VGND VPWR VPWR sky130_fd_sc_hd__decap_4
Xmux_right_track_26.sky130_fd_sc_hd__buf_4_0_ mux_right_track_26.mux_l2_in_0_/X VGND
+ VGND VPWR VPWR _62_/A sky130_fd_sc_hd__clkbuf_1
XANTENNA_input14_A chanx_right_in[19] VGND VGND VPWR VPWR sky130_fd_sc_hd__diode_2
XFILLER_8_133 VGND VGND VPWR VPWR sky130_fd_sc_hd__fill_1
XFILLER_8_100 VGND VGND VPWR VPWR sky130_fd_sc_hd__fill_2
XANTENNA_input6_A chanx_right_in[11] VGND VGND VPWR VPWR sky130_fd_sc_hd__diode_2
XFILLER_26_221 VGND VGND VPWR VPWR sky130_fd_sc_hd__fill_2
XFILLER_26_210 VGND VGND VPWR VPWR sky130_fd_sc_hd__fill_2
XFILLER_17_221 VGND VGND VPWR VPWR sky130_fd_sc_hd__fill_2
Xmem_right_track_18.sky130_fd_sc_hd__dfxtp_1_0_ clkbuf_2_1__f_mem_bottom_track_1.prog_clk/X
+ hold6/X VGND VGND VPWR VPWR hold12/A sky130_fd_sc_hd__dfxtp_1
XFILLER_4_40 VGND VGND VPWR VPWR sky130_fd_sc_hd__fill_2
XFILLER_23_27 VGND VPWR VPWR VGND sky130_ef_sc_hd__decap_12
XFILLER_20_205 VGND VGND VPWR VPWR sky130_fd_sc_hd__fill_2
Xmux_bottom_track_25.mux_l2_in_0_ mux_bottom_track_25.mux_l2_in_0_/A0 mux_bottom_track_25.mux_l1_in_0_/X
+ output54/A VGND VGND VPWR VPWR mux_bottom_track_25.mux_l2_in_0_/X sky130_fd_sc_hd__mux2_1
XFILLER_18_27 VGND VGND VPWR VPWR sky130_fd_sc_hd__fill_1
Xmem_right_track_30.sky130_fd_sc_hd__dfxtp_1_1_ clkbuf_2_0__f_mem_bottom_track_1.prog_clk/X
+ hold19/X VGND VGND VPWR VPWR hold5/A sky130_fd_sc_hd__dfxtp_1
Xmux_right_track_34.mux_l1_in_0_ input35/X input48/X hold41/A VGND VGND VPWR VPWR
+ mux_right_track_34.mux_l1_in_0_/X sky130_fd_sc_hd__mux2_1
XFILLER_29_15 VGND VPWR VPWR VGND sky130_ef_sc_hd__decap_12
Xhold26 hold26/A VGND VGND VPWR VPWR hold26/X sky130_fd_sc_hd__clkdlybuf4s25_1
XFILLER_19_113 VGND VPWR VPWR VGND sky130_ef_sc_hd__decap_12
Xmux_bottom_track_9.mux_l2_in_0_ mux_bottom_track_9.mux_l2_in_0_/A0 mux_bottom_track_9.mux_l1_in_0_/X
+ hold26/A VGND VGND VPWR VPWR mux_bottom_track_9.mux_l2_in_0_/X sky130_fd_sc_hd__mux2_1
XFILLER_10_72 VGND VGND VPWR VPWR sky130_fd_sc_hd__fill_2
XFILLER_10_61 VGND VGND VPWR VPWR sky130_fd_sc_hd__fill_1
Xhold15 hold15/A VGND VGND VPWR VPWR hold15/X sky130_fd_sc_hd__clkdlybuf4s25_1
XANTENNA_input44_A right_bottom_grid_pin_34_ VGND VGND VPWR VPWR sky130_fd_sc_hd__diode_2
Xhold37 hold37/A VGND VGND VPWR VPWR hold37/X sky130_fd_sc_hd__clkdlybuf4s25_1
XFILLER_25_105 VGND VGND VPWR VPWR sky130_fd_sc_hd__decap_6
XFILLER_19_81 VGND VPWR VPWR VGND sky130_ef_sc_hd__decap_12
Xmux_right_track_28.mux_l2_in_0__99 VGND VGND VPWR VPWR mux_right_track_28.mux_l2_in_0_/A0
+ mux_right_track_28.mux_l2_in_0__99/LO sky130_fd_sc_hd__conb_1