* NGSPICE file created from sb_1__2_.ext - technology: sky130A

* Black-box entry subcircuit for sky130_fd_sc_hd__tapvpwrvgnd_1 abstract view
.subckt sky130_fd_sc_hd__tapvpwrvgnd_1 VGND VPWR
.ends

* Black-box entry subcircuit for sky130_fd_sc_hd__dfxtp_1 abstract view
.subckt sky130_fd_sc_hd__dfxtp_1 CLK D VGND VNB VPB VPWR Q
.ends

* Black-box entry subcircuit for sky130_fd_sc_hd__fill_2 abstract view
.subckt sky130_fd_sc_hd__fill_2 VGND VNB VPB VPWR
.ends

* Black-box entry subcircuit for sky130_fd_sc_hd__mux2_1 abstract view
.subckt sky130_fd_sc_hd__mux2_1 A0 A1 S VGND VNB VPB VPWR X
.ends

* Black-box entry subcircuit for sky130_fd_sc_hd__diode_2 abstract view
.subckt sky130_fd_sc_hd__diode_2 DIODE VGND VNB VPB VPWR
.ends

* Black-box entry subcircuit for sky130_fd_sc_hd__decap_3 abstract view
.subckt sky130_fd_sc_hd__decap_3 VGND VNB VPB VPWR
.ends

* Black-box entry subcircuit for sky130_fd_sc_hd__clkbuf_1 abstract view
.subckt sky130_fd_sc_hd__clkbuf_1 A VGND VNB VPB VPWR X
.ends

* Black-box entry subcircuit for sky130_fd_sc_hd__decap_4 abstract view
.subckt sky130_fd_sc_hd__decap_4 VGND VNB VPB VPWR
.ends

* Black-box entry subcircuit for sky130_fd_sc_hd__fill_1 abstract view
.subckt sky130_fd_sc_hd__fill_1 VGND VNB VPB VPWR
.ends

* Black-box entry subcircuit for sky130_fd_sc_hd__clkdlybuf4s25_1 abstract view
.subckt sky130_fd_sc_hd__clkdlybuf4s25_1 A VGND VNB VPB VPWR X
.ends

* Black-box entry subcircuit for sky130_fd_sc_hd__decap_6 abstract view
.subckt sky130_fd_sc_hd__decap_6 VGND VNB VPB VPWR
.ends

* Black-box entry subcircuit for sky130_fd_sc_hd__conb_1 abstract view
.subckt sky130_fd_sc_hd__conb_1 VGND VNB VPB VPWR HI LO
.ends

* Black-box entry subcircuit for sky130_fd_sc_hd__buf_2 abstract view
.subckt sky130_fd_sc_hd__buf_2 A VGND VNB VPB VPWR X
.ends

* Black-box entry subcircuit for sky130_fd_sc_hd__decap_8 abstract view
.subckt sky130_fd_sc_hd__decap_8 VGND VNB VPB VPWR
.ends

* Black-box entry subcircuit for sky130_ef_sc_hd__decap_12 abstract view
.subckt sky130_ef_sc_hd__decap_12 VGND VPWR VPB VNB
.ends

* Black-box entry subcircuit for sky130_fd_sc_hd__buf_8 abstract view
.subckt sky130_fd_sc_hd__buf_8 A VGND VNB VPB VPWR X
.ends

* Black-box entry subcircuit for sky130_fd_sc_hd__clkbuf_2 abstract view
.subckt sky130_fd_sc_hd__clkbuf_2 A VGND VNB VPB VPWR X
.ends

* Black-box entry subcircuit for sky130_fd_sc_hd__dlymetal6s2s_1 abstract view
.subckt sky130_fd_sc_hd__dlymetal6s2s_1 A VGND VNB VPB VPWR X
.ends

* Black-box entry subcircuit for sky130_fd_sc_hd__clkbuf_16 abstract view
.subckt sky130_fd_sc_hd__clkbuf_16 A VGND VNB VPB VPWR X
.ends

.subckt sb_1__2_ SC_IN_BOT SC_OUT_BOT VGND VPWR bottom_left_grid_pin_42_ bottom_left_grid_pin_43_
+ bottom_left_grid_pin_44_ bottom_left_grid_pin_45_ bottom_left_grid_pin_46_ bottom_left_grid_pin_47_
+ bottom_left_grid_pin_48_ bottom_left_grid_pin_49_ ccff_head ccff_tail chanx_left_in[0]
+ chanx_left_in[10] chanx_left_in[11] chanx_left_in[12] chanx_left_in[13] chanx_left_in[14]
+ chanx_left_in[15] chanx_left_in[16] chanx_left_in[17] chanx_left_in[18] chanx_left_in[19]
+ chanx_left_in[1] chanx_left_in[2] chanx_left_in[3] chanx_left_in[4] chanx_left_in[5]
+ chanx_left_in[6] chanx_left_in[7] chanx_left_in[8] chanx_left_in[9] chanx_left_out[0]
+ chanx_left_out[10] chanx_left_out[11] chanx_left_out[12] chanx_left_out[13] chanx_left_out[14]
+ chanx_left_out[15] chanx_left_out[16] chanx_left_out[17] chanx_left_out[18] chanx_left_out[19]
+ chanx_left_out[1] chanx_left_out[2] chanx_left_out[3] chanx_left_out[4] chanx_left_out[5]
+ chanx_left_out[6] chanx_left_out[7] chanx_left_out[8] chanx_left_out[9] chanx_right_in[0]
+ chanx_right_in[10] chanx_right_in[11] chanx_right_in[12] chanx_right_in[13] chanx_right_in[14]
+ chanx_right_in[15] chanx_right_in[16] chanx_right_in[17] chanx_right_in[18] chanx_right_in[19]
+ chanx_right_in[1] chanx_right_in[2] chanx_right_in[3] chanx_right_in[4] chanx_right_in[5]
+ chanx_right_in[6] chanx_right_in[7] chanx_right_in[8] chanx_right_in[9] chanx_right_out[0]
+ chanx_right_out[10] chanx_right_out[11] chanx_right_out[12] chanx_right_out[13]
+ chanx_right_out[14] chanx_right_out[15] chanx_right_out[16] chanx_right_out[17]
+ chanx_right_out[18] chanx_right_out[19] chanx_right_out[1] chanx_right_out[2] chanx_right_out[3]
+ chanx_right_out[4] chanx_right_out[5] chanx_right_out[6] chanx_right_out[7] chanx_right_out[8]
+ chanx_right_out[9] chany_bottom_in[0] chany_bottom_in[10] chany_bottom_in[11] chany_bottom_in[12]
+ chany_bottom_in[13] chany_bottom_in[14] chany_bottom_in[15] chany_bottom_in[16]
+ chany_bottom_in[17] chany_bottom_in[18] chany_bottom_in[19] chany_bottom_in[1] chany_bottom_in[2]
+ chany_bottom_in[3] chany_bottom_in[4] chany_bottom_in[5] chany_bottom_in[6] chany_bottom_in[7]
+ chany_bottom_in[8] chany_bottom_in[9] chany_bottom_out[0] chany_bottom_out[10] chany_bottom_out[11]
+ chany_bottom_out[12] chany_bottom_out[13] chany_bottom_out[14] chany_bottom_out[15]
+ chany_bottom_out[16] chany_bottom_out[17] chany_bottom_out[18] chany_bottom_out[19]
+ chany_bottom_out[1] chany_bottom_out[2] chany_bottom_out[3] chany_bottom_out[4]
+ chany_bottom_out[5] chany_bottom_out[6] chany_bottom_out[7] chany_bottom_out[8]
+ chany_bottom_out[9] left_bottom_grid_pin_34_ left_bottom_grid_pin_35_ left_bottom_grid_pin_36_
+ left_bottom_grid_pin_37_ left_bottom_grid_pin_38_ left_bottom_grid_pin_39_ left_bottom_grid_pin_40_
+ left_bottom_grid_pin_41_ left_top_grid_pin_1_ prog_clk_0_S_in right_bottom_grid_pin_34_
+ right_bottom_grid_pin_35_ right_bottom_grid_pin_36_ right_bottom_grid_pin_37_ right_bottom_grid_pin_38_
+ right_bottom_grid_pin_39_ right_bottom_grid_pin_40_ right_bottom_grid_pin_41_ right_top_grid_pin_1_
XTAP_188 VGND VPWR sky130_fd_sc_hd__tapvpwrvgnd_1
XTAP_177 VGND VPWR sky130_fd_sc_hd__tapvpwrvgnd_1
Xmem_right_track_2.sky130_fd_sc_hd__dfxtp_1_0_ clkbuf_3_7__f_mem_bottom_track_1.prog_clk/X
+ hold6/X VGND VGND VPWR VPWR mux_right_track_2.mux_l1_in_1_/S sky130_fd_sc_hd__dfxtp_1
XFILLER_26_52 VGND VGND VPWR VPWR sky130_fd_sc_hd__fill_2
XFILLER_26_74 VGND VGND VPWR VPWR sky130_fd_sc_hd__fill_2
Xmux_bottom_track_3.mux_l1_in_1_ input7/X input5/X mux_bottom_track_3.mux_l1_in_3_/S
+ VGND VGND VPWR VPWR mux_bottom_track_3.mux_l1_in_1_/X sky130_fd_sc_hd__mux2_1
Xmem_left_track_17.sky130_fd_sc_hd__dfxtp_1_0_ clkbuf_3_2__f_mem_bottom_track_1.prog_clk/X
+ hold26/X VGND VGND VPWR VPWR mux_left_track_17.mux_l1_in_3_/S sky130_fd_sc_hd__dfxtp_1
XANTENNA_mux_bottom_track_11.mux_l1_in_0__A0 input3/X VGND VGND VPWR VPWR sky130_fd_sc_hd__diode_2
XFILLER_12_76 VGND VGND VPWR VPWR sky130_fd_sc_hd__fill_2
XFILLER_12_87 VGND VGND VPWR VPWR sky130_fd_sc_hd__decap_3
X_062_ _062_/A VGND VGND VPWR VPWR _062_/X sky130_fd_sc_hd__clkbuf_1
XANTENNA_input55_A chany_bottom_in[13] VGND VGND VPWR VPWR sky130_fd_sc_hd__diode_2
XFILLER_2_176 VGND VGND VPWR VPWR sky130_fd_sc_hd__fill_2
Xmem_right_track_8.sky130_fd_sc_hd__dfxtp_1_1_ clkbuf_3_7__f_mem_bottom_track_1.prog_clk/X
+ hold16/X VGND VGND VPWR VPWR mux_right_track_8.mux_l2_in_3_/S sky130_fd_sc_hd__dfxtp_1
XFILLER_17_9 VGND VGND VPWR VPWR sky130_fd_sc_hd__decap_4
XFILLER_9_33 VGND VGND VPWR VPWR sky130_fd_sc_hd__fill_1
XFILLER_18_31 VGND VGND VPWR VPWR sky130_fd_sc_hd__decap_4
X_114_ _114_/A VGND VGND VPWR VPWR _114_/X sky130_fd_sc_hd__clkbuf_1
XFILLER_22_7 VGND VGND VPWR VPWR sky130_fd_sc_hd__fill_2
Xmem_bottom_track_25.sky130_fd_sc_hd__dfxtp_1_2_ clkbuf_3_5__f_mem_bottom_track_1.prog_clk/X
+ mux_bottom_track_25.mux_l2_in_1_/S VGND VGND VPWR VPWR hold21/A sky130_fd_sc_hd__dfxtp_1
XFILLER_29_117 VGND VGND VPWR VPWR sky130_fd_sc_hd__fill_1
Xmux_bottom_track_17.mux_l1_in_0_ input6/X _071_/A mux_bottom_track_17.mux_l1_in_1_/S
+ VGND VGND VPWR VPWR mux_bottom_track_17.mux_l1_in_0_/X sky130_fd_sc_hd__mux2_1
XFILLER_20_43 VGND VGND VPWR VPWR sky130_fd_sc_hd__fill_2
XFILLER_20_65 VGND VGND VPWR VPWR sky130_fd_sc_hd__fill_2
XFILLER_20_76 VGND VGND VPWR VPWR sky130_fd_sc_hd__fill_2
Xhold30 hold30/A VGND VGND VPWR VPWR hold30/X sky130_fd_sc_hd__clkdlybuf4s25_1
XFILLER_28_194 VGND VGND VPWR VPWR sky130_fd_sc_hd__fill_2
XFILLER_28_172 VGND VGND VPWR VPWR sky130_fd_sc_hd__decap_6
XFILLER_28_161 VGND VGND VPWR VPWR sky130_fd_sc_hd__fill_2
XFILLER_28_150 VGND VGND VPWR VPWR sky130_fd_sc_hd__fill_2
XANTENNA_input18_A chanx_left_in[16] VGND VGND VPWR VPWR sky130_fd_sc_hd__diode_2
XFILLER_6_45 VGND VGND VPWR VPWR sky130_fd_sc_hd__fill_2
XFILLER_13_3 VGND VGND VPWR VPWR sky130_fd_sc_hd__fill_1
Xmux_right_track_32.mux_l2_in_1__169 VGND VGND VPWR VPWR mux_right_track_32.mux_l2_in_1_/A0
+ mux_right_track_32.mux_l2_in_1__169/LO sky130_fd_sc_hd__conb_1
XFILLER_15_54 VGND VGND VPWR VPWR sky130_fd_sc_hd__fill_2
Xoutput97 _072_/X VGND VGND VPWR VPWR chanx_left_out[15] sky130_fd_sc_hd__buf_2
Xmux_bottom_track_3.sky130_fd_sc_hd__buf_4_0_ mux_bottom_track_3.mux_l3_in_0_/X VGND
+ VGND VPWR VPWR _098_/A sky130_fd_sc_hd__clkbuf_1
XTAP_189 VGND VPWR sky130_fd_sc_hd__tapvpwrvgnd_1
XTAP_178 VGND VPWR sky130_fd_sc_hd__tapvpwrvgnd_1
XTAP_101 VGND VPWR sky130_fd_sc_hd__tapvpwrvgnd_1
XTAP_112 VGND VPWR sky130_fd_sc_hd__tapvpwrvgnd_1
XTAP_123 VGND VPWR sky130_fd_sc_hd__tapvpwrvgnd_1
XTAP_134 VGND VPWR sky130_fd_sc_hd__tapvpwrvgnd_1
XTAP_145 VGND VPWR sky130_fd_sc_hd__tapvpwrvgnd_1
XTAP_156 VGND VPWR sky130_fd_sc_hd__tapvpwrvgnd_1
XTAP_167 VGND VPWR sky130_fd_sc_hd__tapvpwrvgnd_1
XFILLER_22_134 VGND VGND VPWR VPWR sky130_fd_sc_hd__fill_2
XANTENNA_mux_right_track_0.mux_l2_in_3__A1 _090_/A VGND VGND VPWR VPWR sky130_fd_sc_hd__diode_2
XFILLER_9_105 VGND VGND VPWR VPWR sky130_fd_sc_hd__fill_2
XFILLER_13_101 VGND VGND VPWR VPWR sky130_fd_sc_hd__decap_3
XFILLER_26_31 VGND VGND VPWR VPWR sky130_fd_sc_hd__decap_4
XANTENNA_input85_A right_bottom_grid_pin_39_ VGND VGND VPWR VPWR sky130_fd_sc_hd__diode_2
Xmux_bottom_track_3.mux_l1_in_0_ input3/X _062_/A mux_bottom_track_3.mux_l1_in_3_/S
+ VGND VGND VPWR VPWR mux_bottom_track_3.mux_l1_in_0_/X sky130_fd_sc_hd__mux2_1
XFILLER_8_182 VGND VGND VPWR VPWR sky130_fd_sc_hd__fill_2
XFILLER_27_215 VGND VGND VPWR VPWR sky130_fd_sc_hd__fill_2
XANTENNA_mux_bottom_track_11.mux_l1_in_0__A1 _067_/A VGND VGND VPWR VPWR sky130_fd_sc_hd__diode_2
XFILLER_10_126 VGND VGND VPWR VPWR sky130_fd_sc_hd__fill_2
XFILLER_10_137 VGND VGND VPWR VPWR sky130_fd_sc_hd__decap_3
XFILLER_12_22 VGND VGND VPWR VPWR sky130_fd_sc_hd__fill_2
XFILLER_23_32 VGND VGND VPWR VPWR sky130_fd_sc_hd__fill_2
X_061_ _061_/A VGND VGND VPWR VPWR _061_/X sky130_fd_sc_hd__clkbuf_1
XFILLER_2_188 VGND VGND VPWR VPWR sky130_fd_sc_hd__fill_2
XANTENNA_input48_A chanx_right_in[7] VGND VGND VPWR VPWR sky130_fd_sc_hd__diode_2
Xmem_right_track_8.sky130_fd_sc_hd__dfxtp_1_0_ clkbuf_3_7__f_mem_bottom_track_1.prog_clk/X
+ hold24/X VGND VGND VPWR VPWR hold16/A sky130_fd_sc_hd__dfxtp_1
Xmux_bottom_track_17.mux_l1_in_1__176 VGND VGND VPWR VPWR mux_bottom_track_17.mux_l1_in_1_/A0
+ mux_bottom_track_17.mux_l1_in_1__176/LO sky130_fd_sc_hd__conb_1
XFILLER_20_221 VGND VGND VPWR VPWR sky130_fd_sc_hd__fill_2
Xmux_left_track_9.sky130_fd_sc_hd__buf_4_0_ mux_left_track_9.mux_l4_in_0_/X VGND VGND
+ VPWR VPWR _061_/A sky130_fd_sc_hd__clkbuf_1
X_113_ _113_/A VGND VGND VPWR VPWR _113_/X sky130_fd_sc_hd__clkbuf_1
Xmux_right_track_24.mux_l1_in_3__168 VGND VGND VPWR VPWR mux_right_track_24.mux_l1_in_3_/A0
+ mux_right_track_24.mux_l1_in_3__168/LO sky130_fd_sc_hd__conb_1
XFILLER_29_107 VGND VGND VPWR VPWR sky130_fd_sc_hd__decap_4
Xmem_bottom_track_25.sky130_fd_sc_hd__dfxtp_1_1_ clkbuf_3_5__f_mem_bottom_track_1.prog_clk/X
+ hold1/X VGND VGND VPWR VPWR mux_bottom_track_25.mux_l2_in_1_/S sky130_fd_sc_hd__dfxtp_1
XFILLER_1_90 VGND VGND VPWR VPWR sky130_fd_sc_hd__decap_3
XFILLER_20_11 VGND VGND VPWR VPWR sky130_fd_sc_hd__fill_2
XFILLER_20_22 VGND VGND VPWR VPWR sky130_fd_sc_hd__fill_2
Xhold20 hold20/A VGND VGND VPWR VPWR hold20/X sky130_fd_sc_hd__clkdlybuf4s25_1
Xhold31 hold31/A VGND VGND VPWR VPWR hold31/X sky130_fd_sc_hd__clkdlybuf4s25_1
XFILLER_19_162 VGND VGND VPWR VPWR sky130_fd_sc_hd__fill_2
XFILLER_25_110 VGND VGND VPWR VPWR sky130_fd_sc_hd__fill_2
XFILLER_25_176 VGND VGND VPWR VPWR sky130_fd_sc_hd__fill_2
XFILLER_15_99 VGND VGND VPWR VPWR sky130_fd_sc_hd__fill_2
Xoutput98 _073_/X VGND VGND VPWR VPWR chanx_left_out[16] sky130_fd_sc_hd__buf_2
XANTENNA_input30_A chanx_left_in[9] VGND VGND VPWR VPWR sky130_fd_sc_hd__diode_2
Xmux_right_track_8.mux_l2_in_3_ mux_right_track_8.mux_l2_in_3_/A0 _094_/A mux_right_track_8.mux_l2_in_3_/S
+ VGND VGND VPWR VPWR mux_right_track_8.mux_l2_in_3_/X sky130_fd_sc_hd__mux2_1
XFILLER_31_113 VGND VGND VPWR VPWR sky130_fd_sc_hd__decap_8
XFILLER_16_143 VGND VGND VPWR VPWR sky130_fd_sc_hd__fill_2
XFILLER_16_165 VGND VGND VPWR VPWR sky130_fd_sc_hd__decap_3
XTAP_179 VGND VPWR sky130_fd_sc_hd__tapvpwrvgnd_1
Xmux_left_track_25.sky130_fd_sc_hd__buf_4_0_ mux_left_track_25.mux_l3_in_0_/X VGND
+ VGND VPWR VPWR _069_/A sky130_fd_sc_hd__clkbuf_1
XTAP_168 VGND VPWR sky130_fd_sc_hd__tapvpwrvgnd_1
XTAP_102 VGND VPWR sky130_fd_sc_hd__tapvpwrvgnd_1
XTAP_113 VGND VPWR sky130_fd_sc_hd__tapvpwrvgnd_1
XTAP_124 VGND VPWR sky130_fd_sc_hd__tapvpwrvgnd_1
XTAP_135 VGND VPWR sky130_fd_sc_hd__tapvpwrvgnd_1
XTAP_146 VGND VPWR sky130_fd_sc_hd__tapvpwrvgnd_1
XTAP_157 VGND VPWR sky130_fd_sc_hd__tapvpwrvgnd_1
Xmem_bottom_track_3.sky130_fd_sc_hd__dfxtp_1_2_ clkbuf_3_0__f_mem_bottom_track_1.prog_clk/X
+ mux_bottom_track_3.mux_l2_in_1_/S VGND VGND VPWR VPWR hold33/A sky130_fd_sc_hd__dfxtp_1
XFILLER_22_157 VGND VGND VPWR VPWR sky130_fd_sc_hd__fill_2
XFILLER_22_179 VGND VGND VPWR VPWR sky130_fd_sc_hd__fill_2
XFILLER_9_128 VGND VGND VPWR VPWR sky130_fd_sc_hd__fill_2
XFILLER_13_113 VGND VGND VPWR VPWR sky130_fd_sc_hd__fill_2
XANTENNA_input78_A left_bottom_grid_pin_41_ VGND VGND VPWR VPWR sky130_fd_sc_hd__diode_2
XFILLER_3_47 VGND VGND VPWR VPWR sky130_fd_sc_hd__decap_4
XFILLER_3_36 VGND VGND VPWR VPWR sky130_fd_sc_hd__fill_2
XFILLER_3_25 VGND VGND VPWR VPWR sky130_fd_sc_hd__fill_2
XANTENNA_mux_bottom_track_1.mux_l1_in_3__A1 _080_/A VGND VGND VPWR VPWR sky130_fd_sc_hd__diode_2
XFILLER_8_194 VGND VGND VPWR VPWR sky130_fd_sc_hd__fill_2
Xmux_left_track_17.mux_l1_in_3__159 VGND VGND VPWR VPWR mux_left_track_17.mux_l1_in_3_/A0
+ mux_left_track_17.mux_l1_in_3__159/LO sky130_fd_sc_hd__conb_1
XFILLER_5_164 VGND VGND VPWR VPWR sky130_fd_sc_hd__decap_4
Xmux_bottom_track_21.mux_l1_in_1__178 VGND VGND VPWR VPWR mux_bottom_track_21.mux_l1_in_1_/A0
+ mux_bottom_track_21.mux_l1_in_1__178/LO sky130_fd_sc_hd__conb_1
Xmux_right_track_8.mux_l4_in_0_ mux_right_track_8.mux_l3_in_1_/X mux_right_track_8.mux_l3_in_0_/X
+ hold23/A VGND VGND VPWR VPWR mux_right_track_8.mux_l4_in_0_/X sky130_fd_sc_hd__mux2_1
XFILLER_23_66 VGND VGND VPWR VPWR sky130_fd_sc_hd__fill_2
XFILLER_3_3 VGND VGND VPWR VPWR sky130_fd_sc_hd__fill_1
XFILLER_2_156 VGND VGND VPWR VPWR sky130_fd_sc_hd__fill_2
XFILLER_2_145 VGND VGND VPWR VPWR sky130_fd_sc_hd__fill_2
XFILLER_2_134 VGND VGND VPWR VPWR sky130_fd_sc_hd__fill_2
XFILLER_2_123 VGND VGND VPWR VPWR sky130_fd_sc_hd__fill_2
XFILLER_2_112 VGND VGND VPWR VPWR sky130_fd_sc_hd__fill_2
XFILLER_2_101 VGND VGND VPWR VPWR sky130_fd_sc_hd__fill_2
X_060_ _060_/A VGND VGND VPWR VPWR _060_/X sky130_fd_sc_hd__clkbuf_1
XFILLER_2_167 VGND VGND VPWR VPWR sky130_fd_sc_hd__decap_4
XFILLER_0_26 VGND VGND VPWR VPWR sky130_fd_sc_hd__fill_2
XFILLER_9_13 VGND VGND VPWR VPWR sky130_fd_sc_hd__fill_2
XFILLER_9_24 VGND VGND VPWR VPWR sky130_fd_sc_hd__fill_2
XFILLER_18_66 VGND VGND VPWR VPWR sky130_fd_sc_hd__fill_2
XFILLER_18_77 VGND VGND VPWR VPWR sky130_fd_sc_hd__decap_3
XFILLER_18_88 VGND VGND VPWR VPWR sky130_fd_sc_hd__decap_4
X_112_ _112_/A VGND VGND VPWR VPWR _112_/X sky130_fd_sc_hd__clkbuf_1
XANTENNA_input60_A chany_bottom_in[18] VGND VGND VPWR VPWR sky130_fd_sc_hd__diode_2
Xmem_bottom_track_25.sky130_fd_sc_hd__dfxtp_1_0_ clkbuf_3_7__f_mem_bottom_track_1.prog_clk/X
+ hold28/X VGND VGND VPWR VPWR hold1/A sky130_fd_sc_hd__dfxtp_1
Xmux_right_track_8.mux_l3_in_1_ mux_right_track_8.mux_l2_in_3_/X mux_right_track_8.mux_l2_in_2_/X
+ mux_right_track_8.mux_l3_in_1_/S VGND VGND VPWR VPWR mux_right_track_8.mux_l3_in_1_/X
+ sky130_fd_sc_hd__mux2_1
XFILLER_29_43 VGND VGND VPWR VPWR sky130_fd_sc_hd__fill_2
XFILLER_29_32 VGND VGND VPWR VPWR sky130_fd_sc_hd__fill_2
XFILLER_29_21 VGND VGND VPWR VPWR sky130_fd_sc_hd__fill_2
XFILLER_28_130 VGND VGND VPWR VPWR sky130_fd_sc_hd__decap_6
Xhold32 hold32/A VGND VGND VPWR VPWR hold32/X sky130_fd_sc_hd__clkdlybuf4s25_1
Xhold21 hold21/A VGND VGND VPWR VPWR hold21/X sky130_fd_sc_hd__clkdlybuf4s25_1
Xhold10 hold10/A VGND VGND VPWR VPWR hold10/X sky130_fd_sc_hd__clkdlybuf4s25_1
XFILLER_15_45 VGND VGND VPWR VPWR sky130_fd_sc_hd__fill_2
XFILLER_15_89 VGND VGND VPWR VPWR sky130_fd_sc_hd__fill_2
XFILLER_25_122 VGND VPWR VPWR VGND sky130_ef_sc_hd__decap_12
XFILLER_25_166 VGND VGND VPWR VPWR sky130_fd_sc_hd__fill_2
XFILLER_31_44 VGND VGND VPWR VPWR sky130_fd_sc_hd__fill_2
Xoutput99 _074_/X VGND VGND VPWR VPWR chanx_left_out[17] sky130_fd_sc_hd__buf_2
XFILLER_0_221 VGND VGND VPWR VPWR sky130_fd_sc_hd__fill_2
XANTENNA_input23_A chanx_left_in[2] VGND VGND VPWR VPWR sky130_fd_sc_hd__diode_2
Xmux_right_track_8.mux_l2_in_2_ _084_/A input58/X mux_right_track_8.mux_l2_in_3_/S
+ VGND VGND VPWR VPWR mux_right_track_8.mux_l2_in_2_/X sky130_fd_sc_hd__mux2_1
XFILLER_31_169 VGND VPWR VPWR VGND sky130_ef_sc_hd__decap_12
XFILLER_31_158 VGND VGND VPWR VPWR sky130_fd_sc_hd__decap_8
XTAP_103 VGND VPWR sky130_fd_sc_hd__tapvpwrvgnd_1
XTAP_114 VGND VPWR sky130_fd_sc_hd__tapvpwrvgnd_1
XTAP_169 VGND VPWR sky130_fd_sc_hd__tapvpwrvgnd_1
XTAP_125 VGND VPWR sky130_fd_sc_hd__tapvpwrvgnd_1
XTAP_136 VGND VPWR sky130_fd_sc_hd__tapvpwrvgnd_1
XTAP_147 VGND VPWR sky130_fd_sc_hd__tapvpwrvgnd_1
XTAP_158 VGND VPWR sky130_fd_sc_hd__tapvpwrvgnd_1
XFILLER_22_103 VGND VGND VPWR VPWR sky130_fd_sc_hd__decap_4
Xmem_bottom_track_3.sky130_fd_sc_hd__dfxtp_1_1_ clkbuf_3_0__f_mem_bottom_track_1.prog_clk/X
+ mux_bottom_track_3.mux_l1_in_3_/S VGND VGND VPWR VPWR mux_bottom_track_3.mux_l2_in_1_/S
+ sky130_fd_sc_hd__dfxtp_1
XFILLER_13_169 VGND VGND VPWR VPWR sky130_fd_sc_hd__fill_1
XFILLER_21_180 VGND VGND VPWR VPWR sky130_fd_sc_hd__decap_4
XFILLER_8_173 VGND VGND VPWR VPWR sky130_fd_sc_hd__fill_2
XANTENNA__064__A _064_/A VGND VGND VPWR VPWR sky130_fd_sc_hd__diode_2
XANTENNA_mux_right_track_4.mux_l1_in_3__A1 input85/X VGND VGND VPWR VPWR sky130_fd_sc_hd__diode_2
XFILLER_33_209 VGND VGND VPWR VPWR sky130_fd_sc_hd__fill_2
XFILLER_5_110 VGND VGND VPWR VPWR sky130_fd_sc_hd__fill_2
XFILLER_5_154 VGND VGND VPWR VPWR sky130_fd_sc_hd__fill_2
XANTENNA_mux_bottom_track_7.mux_l1_in_0__A0 input3/X VGND VGND VPWR VPWR sky130_fd_sc_hd__diode_2
XFILLER_23_12 VGND VGND VPWR VPWR sky130_fd_sc_hd__decap_4
Xprog_clk_0_FTB00 prog_clk_0_S_in VGND VGND VPWR VPWR prog_clk_0_FTB00/X sky130_fd_sc_hd__buf_8
Xmem_bottom_track_9.sky130_fd_sc_hd__dfxtp_1_2_ clkbuf_3_1__f_mem_bottom_track_1.prog_clk/X
+ mux_bottom_track_9.mux_l2_in_1_/S VGND VGND VPWR VPWR hold4/A sky130_fd_sc_hd__dfxtp_1
XFILLER_20_212 VGND VGND VPWR VPWR sky130_fd_sc_hd__decap_4
X_111_ _111_/A VGND VGND VPWR VPWR _111_/X sky130_fd_sc_hd__clkbuf_1
XANTENNA_mux_bottom_track_5.mux_l1_in_2__A0 _083_/A VGND VGND VPWR VPWR sky130_fd_sc_hd__diode_2
XANTENNA_input53_A chany_bottom_in[11] VGND VGND VPWR VPWR sky130_fd_sc_hd__diode_2
XFILLER_15_9 VGND VGND VPWR VPWR sky130_fd_sc_hd__fill_2
Xmux_right_track_8.mux_l3_in_0_ mux_right_track_8.mux_l2_in_1_/X mux_right_track_8.mux_l2_in_0_/X
+ mux_right_track_8.mux_l3_in_1_/S VGND VGND VPWR VPWR mux_right_track_8.mux_l3_in_0_/X
+ sky130_fd_sc_hd__mux2_1
XANTENNA__072__A _072_/A VGND VGND VPWR VPWR sky130_fd_sc_hd__diode_2
XFILLER_4_219 VGND VGND VPWR VPWR sky130_fd_sc_hd__decap_4
Xhold11 hold11/A VGND VGND VPWR VPWR hold11/X sky130_fd_sc_hd__clkdlybuf4s25_1
Xhold22 hold22/A VGND VGND VPWR VPWR hold22/X sky130_fd_sc_hd__clkdlybuf4s25_1
XFILLER_29_77 VGND VGND VPWR VPWR sky130_fd_sc_hd__fill_1
XFILLER_29_55 VGND VGND VPWR VPWR sky130_fd_sc_hd__fill_1
XFILLER_28_197 VGND VGND VPWR VPWR sky130_fd_sc_hd__fill_1
Xhold33 hold33/A VGND VGND VPWR VPWR hold33/X sky130_fd_sc_hd__clkdlybuf4s25_1
XFILLER_6_26 VGND VGND VPWR VPWR sky130_fd_sc_hd__fill_2
XFILLER_20_7 VGND VGND VPWR VPWR sky130_fd_sc_hd__fill_2
XFILLER_19_197 VGND VGND VPWR VPWR sky130_fd_sc_hd__fill_2
XANTENNA_mux_bottom_track_13.mux_l1_in_1__A1 _088_/A VGND VGND VPWR VPWR sky130_fd_sc_hd__diode_2
XFILLER_25_101 VGND VGND VPWR VPWR sky130_fd_sc_hd__decap_3
XANTENNA__067__A _067_/A VGND VGND VPWR VPWR sky130_fd_sc_hd__diode_2
XFILLER_15_13 VGND VGND VPWR VPWR sky130_fd_sc_hd__fill_2
XFILLER_15_24 VGND VGND VPWR VPWR sky130_fd_sc_hd__decap_4
XFILLER_25_134 VGND VGND VPWR VPWR sky130_fd_sc_hd__decap_4
XFILLER_31_23 VGND VGND VPWR VPWR sky130_fd_sc_hd__decap_4
Xoutput89 _056_/X VGND VGND VPWR VPWR SC_OUT_BOT sky130_fd_sc_hd__buf_2
XFILLER_16_101 VGND VGND VPWR VPWR sky130_fd_sc_hd__fill_2
XFILLER_16_178 VGND VGND VPWR VPWR sky130_fd_sc_hd__fill_2
XFILLER_16_189 VGND VGND VPWR VPWR sky130_fd_sc_hd__fill_2
XANTENNA_input16_A chanx_left_in[14] VGND VGND VPWR VPWR sky130_fd_sc_hd__diode_2
Xmux_right_track_8.mux_l2_in_1_ input70/X input63/X mux_right_track_8.mux_l2_in_3_/S
+ VGND VGND VPWR VPWR mux_right_track_8.mux_l2_in_1_/X sky130_fd_sc_hd__mux2_1
XTAP_104 VGND VPWR sky130_fd_sc_hd__tapvpwrvgnd_1
XTAP_115 VGND VPWR sky130_fd_sc_hd__tapvpwrvgnd_1
XTAP_126 VGND VPWR sky130_fd_sc_hd__tapvpwrvgnd_1
XTAP_137 VGND VPWR sky130_fd_sc_hd__tapvpwrvgnd_1
XTAP_148 VGND VPWR sky130_fd_sc_hd__tapvpwrvgnd_1
XTAP_159 VGND VPWR sky130_fd_sc_hd__tapvpwrvgnd_1
XFILLER_30_181 VGND VGND VPWR VPWR sky130_fd_sc_hd__fill_2
Xmem_bottom_track_3.sky130_fd_sc_hd__dfxtp_1_0_ clkbuf_3_1__f_mem_bottom_track_1.prog_clk/X
+ hold34/X VGND VGND VPWR VPWR mux_bottom_track_3.mux_l1_in_3_/S sky130_fd_sc_hd__dfxtp_1
XANTENNA_input8_A bottom_left_grid_pin_48_ VGND VGND VPWR VPWR sky130_fd_sc_hd__diode_2
XFILLER_26_78 VGND VGND VPWR VPWR sky130_fd_sc_hd__fill_2
XFILLER_8_163 VGND VGND VPWR VPWR sky130_fd_sc_hd__fill_2
Xmem_bottom_track_11.sky130_fd_sc_hd__dfxtp_1_2_ clkbuf_3_4__f_mem_bottom_track_1.prog_clk/X
+ mux_bottom_track_11.mux_l2_in_1_/S VGND VGND VPWR VPWR hold8/A sky130_fd_sc_hd__dfxtp_1
XFILLER_27_207 VGND VGND VPWR VPWR sky130_fd_sc_hd__decap_4
XANTENNA__080__A _080_/A VGND VGND VPWR VPWR sky130_fd_sc_hd__diode_2
XANTENNA_input83_A right_bottom_grid_pin_37_ VGND VGND VPWR VPWR sky130_fd_sc_hd__diode_2
XFILLER_32_221 VGND VGND VPWR VPWR sky130_fd_sc_hd__fill_2
XANTENNA_mux_bottom_track_7.mux_l1_in_0__A1 _064_/A VGND VGND VPWR VPWR sky130_fd_sc_hd__diode_2
XFILLER_23_221 VGND VGND VPWR VPWR sky130_fd_sc_hd__fill_2
XANTENNA__075__A _075_/A VGND VGND VPWR VPWR sky130_fd_sc_hd__diode_2
Xmem_bottom_track_9.sky130_fd_sc_hd__dfxtp_1_1_ clkbuf_3_1__f_mem_bottom_track_1.prog_clk/X
+ hold27/X VGND VGND VPWR VPWR mux_bottom_track_9.mux_l2_in_1_/S sky130_fd_sc_hd__dfxtp_1
XFILLER_0_39 VGND VGND VPWR VPWR sky130_fd_sc_hd__fill_2
XFILLER_14_221 VGND VGND VPWR VPWR sky130_fd_sc_hd__fill_2
XFILLER_1_191 VGND VGND VPWR VPWR sky130_fd_sc_hd__decap_4
X_110_ _110_/A VGND VGND VPWR VPWR _110_/X sky130_fd_sc_hd__clkbuf_1
XANTENNA_mux_bottom_track_5.mux_l1_in_2__A1 input8/X VGND VGND VPWR VPWR sky130_fd_sc_hd__diode_2
XANTENNA_input46_A chanx_right_in[5] VGND VGND VPWR VPWR sky130_fd_sc_hd__diode_2
XANTENNA_mux_bottom_track_21.mux_l1_in_1__A1 _094_/A VGND VGND VPWR VPWR sky130_fd_sc_hd__diode_2
Xhold23 hold23/A VGND VGND VPWR VPWR hold23/X sky130_fd_sc_hd__clkdlybuf4s25_1
XFILLER_29_12 VGND VGND VPWR VPWR sky130_fd_sc_hd__fill_2
Xhold34 hold34/A VGND VGND VPWR VPWR hold34/X sky130_fd_sc_hd__clkdlybuf4s25_1
Xhold12 hold12/A VGND VGND VPWR VPWR hold12/X sky130_fd_sc_hd__clkdlybuf4s25_1
XFILLER_10_80 VGND VGND VPWR VPWR sky130_fd_sc_hd__decap_4
XFILLER_10_91 VGND VGND VPWR VPWR sky130_fd_sc_hd__fill_1
XFILLER_19_110 VGND VGND VPWR VPWR sky130_fd_sc_hd__fill_2
Xmux_bottom_track_11.sky130_fd_sc_hd__buf_4_0_ mux_bottom_track_11.mux_l3_in_0_/X
+ VGND VGND VPWR VPWR _102_/A sky130_fd_sc_hd__clkbuf_1
XFILLER_31_13 VGND VGND VPWR VPWR sky130_fd_sc_hd__fill_2
XANTENNA__083__A _083_/A VGND VGND VPWR VPWR sky130_fd_sc_hd__diode_2
XFILLER_31_57 VGND VPWR VPWR VGND sky130_ef_sc_hd__decap_12
Xmux_right_track_8.mux_l2_in_0_ input87/X mux_right_track_8.mux_l1_in_0_/X mux_right_track_8.mux_l2_in_3_/S
+ VGND VGND VPWR VPWR mux_right_track_8.mux_l2_in_0_/X sky130_fd_sc_hd__mux2_1
XFILLER_16_113 VGND VGND VPWR VPWR sky130_fd_sc_hd__decap_3
XFILLER_24_190 VGND VGND VPWR VPWR sky130_fd_sc_hd__fill_2
XTAP_105 VGND VPWR sky130_fd_sc_hd__tapvpwrvgnd_1
XTAP_116 VGND VPWR sky130_fd_sc_hd__tapvpwrvgnd_1
XTAP_127 VGND VPWR sky130_fd_sc_hd__tapvpwrvgnd_1
XTAP_138 VGND VPWR sky130_fd_sc_hd__tapvpwrvgnd_1
XFILLER_21_90 VGND VGND VPWR VPWR sky130_fd_sc_hd__fill_2
XTAP_149 VGND VPWR sky130_fd_sc_hd__tapvpwrvgnd_1
XFILLER_22_138 VGND VGND VPWR VPWR sky130_fd_sc_hd__fill_2
Xrepeater151 repeater152/X VGND VGND VPWR VPWR repeater151/X sky130_fd_sc_hd__clkbuf_2
XFILLER_26_13 VGND VGND VPWR VPWR sky130_fd_sc_hd__decap_4
XFILLER_26_35 VGND VGND VPWR VPWR sky130_fd_sc_hd__fill_1
XFILLER_9_109 VGND VGND VPWR VPWR sky130_fd_sc_hd__decap_3
XFILLER_21_193 VGND VGND VPWR VPWR sky130_fd_sc_hd__fill_2
XANTENNA_mux_right_track_4.mux_l1_in_6__A0 _092_/A VGND VGND VPWR VPWR sky130_fd_sc_hd__diode_2
XFILLER_8_153 VGND VGND VPWR VPWR sky130_fd_sc_hd__fill_2
XFILLER_8_197 VGND VGND VPWR VPWR sky130_fd_sc_hd__fill_2
Xmem_bottom_track_11.sky130_fd_sc_hd__dfxtp_1_1_ clkbuf_3_4__f_mem_bottom_track_1.prog_clk/X
+ hold31/X VGND VGND VPWR VPWR mux_bottom_track_11.mux_l2_in_1_/S sky130_fd_sc_hd__dfxtp_1
XFILLER_10_108 VGND VGND VPWR VPWR sky130_fd_sc_hd__fill_2
XFILLER_12_26 VGND VGND VPWR VPWR sky130_fd_sc_hd__fill_2
XFILLER_18_208 VGND VGND VPWR VPWR sky130_fd_sc_hd__decap_4
XFILLER_5_178 VGND VGND VPWR VPWR sky130_fd_sc_hd__decap_4
XFILLER_5_123 VGND VGND VPWR VPWR sky130_fd_sc_hd__fill_2
XANTENNA_input76_A left_bottom_grid_pin_39_ VGND VGND VPWR VPWR sky130_fd_sc_hd__diode_2
XFILLER_4_82 VGND VGND VPWR VPWR sky130_fd_sc_hd__fill_2
XFILLER_23_36 VGND VGND VPWR VPWR sky130_fd_sc_hd__fill_2
XANTENNA__091__A _091_/A VGND VGND VPWR VPWR sky130_fd_sc_hd__diode_2
Xmem_bottom_track_9.sky130_fd_sc_hd__dfxtp_1_0_ clkbuf_3_1__f_mem_bottom_track_1.prog_clk/X
+ hold12/X VGND VGND VPWR VPWR hold27/A sky130_fd_sc_hd__dfxtp_1
XFILLER_1_181 VGND VGND VPWR VPWR sky130_fd_sc_hd__fill_2
XANTENNA__086__A _086_/A VGND VGND VPWR VPWR sky130_fd_sc_hd__diode_2
XANTENNA_input39_A chanx_right_in[17] VGND VGND VPWR VPWR sky130_fd_sc_hd__diode_2
XFILLER_1_72 VGND VGND VPWR VPWR sky130_fd_sc_hd__fill_2
XFILLER_20_26 VGND VGND VPWR VPWR sky130_fd_sc_hd__fill_2
Xhold24 hold24/A VGND VGND VPWR VPWR hold24/X sky130_fd_sc_hd__clkdlybuf4s25_1
Xhold13 hold13/A VGND VGND VPWR VPWR hold13/X sky130_fd_sc_hd__clkdlybuf4s25_1
Xhold35 hold35/A VGND VGND VPWR VPWR hold35/X sky130_fd_sc_hd__clkdlybuf4s25_1
XFILLER_3_221 VGND VGND VPWR VPWR sky130_fd_sc_hd__fill_2
XFILLER_10_70 VGND VGND VPWR VPWR sky130_fd_sc_hd__fill_2
XFILLER_13_8 VGND VGND VPWR VPWR sky130_fd_sc_hd__fill_2
XFILLER_19_166 VGND VGND VPWR VPWR sky130_fd_sc_hd__fill_2
XFILLER_25_169 VGND VGND VPWR VPWR sky130_fd_sc_hd__fill_1
XFILLER_33_180 VGND VGND VPWR VPWR sky130_fd_sc_hd__decap_6
XFILLER_15_59 VGND VGND VPWR VPWR sky130_fd_sc_hd__fill_2
XFILLER_31_69 VGND VGND VPWR VPWR sky130_fd_sc_hd__decap_3
XFILLER_16_136 VGND VGND VPWR VPWR sky130_fd_sc_hd__decap_4
XTAP_106 VGND VPWR sky130_fd_sc_hd__tapvpwrvgnd_1
XTAP_117 VGND VPWR sky130_fd_sc_hd__tapvpwrvgnd_1
XTAP_128 VGND VPWR sky130_fd_sc_hd__tapvpwrvgnd_1
XTAP_139 VGND VPWR sky130_fd_sc_hd__tapvpwrvgnd_1
XPHY_0 VGND VGND VPWR VPWR sky130_fd_sc_hd__decap_3
XFILLER_30_194 VGND VGND VPWR VPWR sky130_fd_sc_hd__fill_2
XFILLER_30_172 VGND VGND VPWR VPWR sky130_fd_sc_hd__decap_6
XFILLER_7_93 VGND VGND VPWR VPWR sky130_fd_sc_hd__fill_2
XFILLER_7_82 VGND VGND VPWR VPWR sky130_fd_sc_hd__fill_2
Xrepeater152 repeater152/A VGND VGND VPWR VPWR repeater152/X sky130_fd_sc_hd__dlymetal6s2s_1
XANTENNA__094__A _094_/A VGND VGND VPWR VPWR sky130_fd_sc_hd__diode_2
XFILLER_13_106 VGND VGND VPWR VPWR sky130_fd_sc_hd__fill_2
XFILLER_21_172 VGND VGND VPWR VPWR sky130_fd_sc_hd__fill_2
XANTENNA_mux_right_track_4.mux_l1_in_6__A1 _083_/A VGND VGND VPWR VPWR sky130_fd_sc_hd__diode_2
Xmux_bottom_track_13.mux_l2_in_0_ mux_bottom_track_13.mux_l1_in_1_/X mux_bottom_track_13.mux_l1_in_0_/X
+ hold7/A VGND VGND VPWR VPWR mux_bottom_track_13.mux_l2_in_0_/X sky130_fd_sc_hd__mux2_1
XANTENNA_input21_A chanx_left_in[19] VGND VGND VPWR VPWR sky130_fd_sc_hd__diode_2
XFILLER_12_150 VGND VGND VPWR VPWR sky130_fd_sc_hd__decap_4
XFILLER_12_194 VGND VGND VPWR VPWR sky130_fd_sc_hd__fill_2
Xmem_bottom_track_11.sky130_fd_sc_hd__dfxtp_1_0_ clkbuf_3_4__f_mem_bottom_track_1.prog_clk/X
+ hold4/X VGND VGND VPWR VPWR hold31/A sky130_fd_sc_hd__dfxtp_1
Xmux_left_track_5.mux_l2_in_3__163 VGND VGND VPWR VPWR mux_left_track_5.mux_l2_in_3_/A0
+ mux_left_track_5.mux_l2_in_3__163/LO sky130_fd_sc_hd__conb_1
Xmux_bottom_track_25.mux_l3_in_0_ mux_bottom_track_25.mux_l2_in_1_/X mux_bottom_track_25.mux_l2_in_0_/X
+ hold21/A VGND VGND VPWR VPWR mux_bottom_track_25.mux_l3_in_0_/X sky130_fd_sc_hd__mux2_1
Xmux_right_track_8.mux_l1_in_0_ input83/X input88/X hold16/A VGND VGND VPWR VPWR mux_right_track_8.mux_l1_in_0_/X
+ sky130_fd_sc_hd__mux2_1
XFILLER_5_113 VGND VGND VPWR VPWR sky130_fd_sc_hd__fill_2
XANTENNA_input69_A chany_bottom_in[8] VGND VGND VPWR VPWR sky130_fd_sc_hd__diode_2
XANTENNA_mux_bottom_track_17.mux_l1_in_0__A1 _071_/A VGND VGND VPWR VPWR sky130_fd_sc_hd__diode_2
XANTENNA_mux_bottom_track_9.mux_l2_in_0__A0 _086_/A VGND VGND VPWR VPWR sky130_fd_sc_hd__diode_2
XFILLER_4_94 VGND VGND VPWR VPWR sky130_fd_sc_hd__decap_4
XFILLER_4_72 VGND VGND VPWR VPWR sky130_fd_sc_hd__fill_2
Xmux_bottom_track_27.sky130_fd_sc_hd__buf_4_0_ mux_bottom_track_27.mux_l2_in_0_/X
+ VGND VGND VPWR VPWR _110_/A sky130_fd_sc_hd__clkbuf_1
XFILLER_23_212 VGND VGND VPWR VPWR sky130_fd_sc_hd__decap_4
XFILLER_2_138 VGND VGND VPWR VPWR sky130_fd_sc_hd__fill_2
Xmux_bottom_track_13.mux_l1_in_1_ mux_bottom_track_13.mux_l1_in_1_/A0 _088_/A mux_bottom_track_13.mux_l1_in_1_/S