* NGSPICE file created from sb_2__0_.ext - technology: sky130A

* Black-box entry subcircuit for sky130_fd_sc_hd__tapvpwrvgnd_1 abstract view
.subckt sky130_fd_sc_hd__tapvpwrvgnd_1 VGND VPWR
.ends

* Black-box entry subcircuit for sky130_fd_sc_hd__clkbuf_16 abstract view
.subckt sky130_fd_sc_hd__clkbuf_16 A VGND VNB VPB VPWR X
.ends

* Black-box entry subcircuit for sky130_fd_sc_hd__decap_4 abstract view
.subckt sky130_fd_sc_hd__decap_4 VGND VNB VPB VPWR
.ends

* Black-box entry subcircuit for sky130_ef_sc_hd__decap_12 abstract view
.subckt sky130_ef_sc_hd__decap_12 VGND VPWR VPB VNB
.ends

* Black-box entry subcircuit for sky130_fd_sc_hd__fill_2 abstract view
.subckt sky130_fd_sc_hd__fill_2 VGND VNB VPB VPWR
.ends

* Black-box entry subcircuit for sky130_fd_sc_hd__dfxtp_1 abstract view
.subckt sky130_fd_sc_hd__dfxtp_1 CLK D VGND VNB VPB VPWR Q
.ends

* Black-box entry subcircuit for sky130_fd_sc_hd__fill_1 abstract view
.subckt sky130_fd_sc_hd__fill_1 VGND VNB VPB VPWR
.ends

* Black-box entry subcircuit for sky130_fd_sc_hd__diode_2 abstract view
.subckt sky130_fd_sc_hd__diode_2 DIODE VGND VNB VPB VPWR
.ends

* Black-box entry subcircuit for sky130_fd_sc_hd__conb_1 abstract view
.subckt sky130_fd_sc_hd__conb_1 VGND VNB VPB VPWR HI LO
.ends

* Black-box entry subcircuit for sky130_fd_sc_hd__clkdlybuf4s25_1 abstract view
.subckt sky130_fd_sc_hd__clkdlybuf4s25_1 A VGND VNB VPB VPWR X
.ends

* Black-box entry subcircuit for sky130_fd_sc_hd__buf_2 abstract view
.subckt sky130_fd_sc_hd__buf_2 A VGND VNB VPB VPWR X
.ends

* Black-box entry subcircuit for sky130_fd_sc_hd__decap_3 abstract view
.subckt sky130_fd_sc_hd__decap_3 VGND VNB VPB VPWR
.ends

* Black-box entry subcircuit for sky130_fd_sc_hd__decap_6 abstract view
.subckt sky130_fd_sc_hd__decap_6 VGND VNB VPB VPWR
.ends

* Black-box entry subcircuit for sky130_fd_sc_hd__clkbuf_1 abstract view
.subckt sky130_fd_sc_hd__clkbuf_1 A VGND VNB VPB VPWR X
.ends

* Black-box entry subcircuit for sky130_fd_sc_hd__mux2_1 abstract view
.subckt sky130_fd_sc_hd__mux2_1 A0 A1 S VGND VNB VPB VPWR X
.ends

* Black-box entry subcircuit for sky130_fd_sc_hd__buf_8 abstract view
.subckt sky130_fd_sc_hd__buf_8 A VGND VNB VPB VPWR X
.ends

* Black-box entry subcircuit for sky130_fd_sc_hd__decap_8 abstract view
.subckt sky130_fd_sc_hd__decap_8 VGND VNB VPB VPWR
.ends

* Black-box entry subcircuit for sky130_fd_sc_hd__clkbuf_2 abstract view
.subckt sky130_fd_sc_hd__clkbuf_2 A VGND VNB VPB VPWR X
.ends

* Black-box entry subcircuit for sky130_fd_sc_hd__dlymetal6s2s_1 abstract view
.subckt sky130_fd_sc_hd__dlymetal6s2s_1 A VGND VNB VPB VPWR X
.ends

.subckt sb_2__0_ VGND VPWR ccff_head ccff_tail chanx_left_in[0] chanx_left_in[10]
+ chanx_left_in[11] chanx_left_in[12] chanx_left_in[13] chanx_left_in[14] chanx_left_in[15]
+ chanx_left_in[16] chanx_left_in[17] chanx_left_in[18] chanx_left_in[19] chanx_left_in[1]
+ chanx_left_in[2] chanx_left_in[3] chanx_left_in[4] chanx_left_in[5] chanx_left_in[6]
+ chanx_left_in[7] chanx_left_in[8] chanx_left_in[9] chanx_left_out[0] chanx_left_out[10]
+ chanx_left_out[11] chanx_left_out[12] chanx_left_out[13] chanx_left_out[14] chanx_left_out[15]
+ chanx_left_out[16] chanx_left_out[17] chanx_left_out[18] chanx_left_out[19] chanx_left_out[1]
+ chanx_left_out[2] chanx_left_out[3] chanx_left_out[4] chanx_left_out[5] chanx_left_out[6]
+ chanx_left_out[7] chanx_left_out[8] chanx_left_out[9] chany_top_in[0] chany_top_in[10]
+ chany_top_in[11] chany_top_in[12] chany_top_in[13] chany_top_in[14] chany_top_in[15]
+ chany_top_in[16] chany_top_in[17] chany_top_in[18] chany_top_in[19] chany_top_in[1]
+ chany_top_in[2] chany_top_in[3] chany_top_in[4] chany_top_in[5] chany_top_in[6]
+ chany_top_in[7] chany_top_in[8] chany_top_in[9] chany_top_out[0] chany_top_out[10]
+ chany_top_out[11] chany_top_out[12] chany_top_out[13] chany_top_out[14] chany_top_out[15]
+ chany_top_out[16] chany_top_out[17] chany_top_out[18] chany_top_out[19] chany_top_out[1]
+ chany_top_out[2] chany_top_out[3] chany_top_out[4] chany_top_out[5] chany_top_out[6]
+ chany_top_out[7] chany_top_out[8] chany_top_out[9] left_bottom_grid_pin_11_ left_bottom_grid_pin_13_
+ left_bottom_grid_pin_15_ left_bottom_grid_pin_17_ left_bottom_grid_pin_1_ left_bottom_grid_pin_3_
+ left_bottom_grid_pin_5_ left_bottom_grid_pin_7_ left_bottom_grid_pin_9_ prog_clk_0_N_in
+ top_left_grid_pin_42_ top_left_grid_pin_43_ top_left_grid_pin_44_ top_left_grid_pin_45_
+ top_left_grid_pin_46_ top_left_grid_pin_47_ top_left_grid_pin_48_ top_left_grid_pin_49_
+ top_right_grid_pin_1_
XTAP_188 VGND VPWR sky130_fd_sc_hd__tapvpwrvgnd_1
Xclkbuf_3_7__f_mem_left_track_1.prog_clk clkbuf_0_mem_left_track_1.prog_clk/X VGND
+ VGND VPWR VPWR clkbuf_3_7__f_mem_left_track_1.prog_clk/X sky130_fd_sc_hd__clkbuf_16
XTAP_177 VGND VPWR sky130_fd_sc_hd__tapvpwrvgnd_1
XFILLER_22_155 VGND VGND VPWR VPWR sky130_fd_sc_hd__decap_4
XFILLER_9_137 VGND VPWR VPWR VGND sky130_ef_sc_hd__decap_12
XFILLER_13_155 VGND VGND VPWR VPWR sky130_fd_sc_hd__fill_2
Xmem_left_track_17.sky130_fd_sc_hd__dfxtp_1_0_ clkbuf_3_3__f_mem_left_track_1.prog_clk/X
+ hold35/X VGND VGND VPWR VPWR hold31/A sky130_fd_sc_hd__dfxtp_1
XFILLER_27_203 VGND VGND VPWR VPWR sky130_fd_sc_hd__fill_1
XFILLER_12_32 VGND VGND VPWR VPWR sky130_fd_sc_hd__fill_2
XFILLER_12_43 VGND VGND VPWR VPWR sky130_fd_sc_hd__fill_2
XFILLER_12_54 VGND VGND VPWR VPWR sky130_fd_sc_hd__fill_2
XFILLER_12_65 VGND VGND VPWR VPWR sky130_fd_sc_hd__fill_2
XFILLER_12_76 VGND VGND VPWR VPWR sky130_fd_sc_hd__fill_2
XFILLER_24_206 VGND VGND VPWR VPWR sky130_fd_sc_hd__fill_2
XANTENNA_mux_top_track_0.mux_l1_in_0__A0 input53/X VGND VGND VPWR VPWR sky130_fd_sc_hd__diode_2
XFILLER_30_209 VGND VGND VPWR VPWR sky130_fd_sc_hd__fill_1
XFILLER_23_64 VGND VGND VPWR VPWR sky130_fd_sc_hd__fill_1
XANTENNA_input55_A top_left_grid_pin_46_ VGND VGND VPWR VPWR sky130_fd_sc_hd__diode_2
XFILLER_2_165 VGND VPWR VPWR VGND sky130_ef_sc_hd__decap_12
XFILLER_2_121 VGND VPWR VPWR VGND sky130_ef_sc_hd__decap_12
XFILLER_0_13 VGND VGND VPWR VPWR sky130_fd_sc_hd__fill_2
XFILLER_0_35 VGND VGND VPWR VPWR sky130_fd_sc_hd__fill_2
XFILLER_0_57 VGND VPWR VPWR VGND sky130_ef_sc_hd__decap_12
XFILLER_9_22 VGND VGND VPWR VPWR sky130_fd_sc_hd__fill_1
XFILLER_12_209 VGND VPWR VPWR VGND sky130_ef_sc_hd__decap_12
Xmux_left_track_27.mux_l2_in_0__133 VGND VGND VPWR VPWR mux_left_track_27.mux_l2_in_0_/A0
+ mux_left_track_27.mux_l2_in_0__133/LO sky130_fd_sc_hd__conb_1
XFILLER_22_7 VGND VGND VPWR VPWR sky130_fd_sc_hd__fill_2
Xhold52 hold52/A VGND VGND VPWR VPWR hold52/X sky130_fd_sc_hd__clkdlybuf4s25_1
Xhold41 hold41/A VGND VGND VPWR VPWR hold41/X sky130_fd_sc_hd__clkdlybuf4s25_1
Xhold30 hold30/A VGND VGND VPWR VPWR hold30/X sky130_fd_sc_hd__clkdlybuf4s25_1
XANTENNA_input18_A chanx_left_in[6] VGND VGND VPWR VPWR sky130_fd_sc_hd__diode_2
XFILLER_28_150 VGND VGND VPWR VPWR sky130_fd_sc_hd__fill_2
XFILLER_28_183 VGND VGND VPWR VPWR sky130_fd_sc_hd__fill_2
XFILLER_28_194 VGND VGND VPWR VPWR sky130_fd_sc_hd__fill_2
XFILLER_13_3 VGND VGND VPWR VPWR sky130_fd_sc_hd__fill_1
XFILLER_15_54 VGND VGND VPWR VPWR sky130_fd_sc_hd__fill_2
XFILLER_31_42 VGND VGND VPWR VPWR sky130_fd_sc_hd__fill_1
Xoutput64 _080_/X VGND VGND VPWR VPWR chanx_left_out[12] sky130_fd_sc_hd__buf_2
Xoutput75 _072_/X VGND VGND VPWR VPWR chanx_left_out[4] sky130_fd_sc_hd__buf_2
Xoutput97 _094_/X VGND VGND VPWR VPWR chany_top_out[6] sky130_fd_sc_hd__buf_2
Xoutput86 _102_/X VGND VGND VPWR VPWR chany_top_out[14] sky130_fd_sc_hd__buf_2
XFILLER_16_197 VGND VPWR VPWR VGND sky130_ef_sc_hd__decap_12
XTAP_189 VGND VPWR sky130_fd_sc_hd__tapvpwrvgnd_1
XTAP_101 VGND VPWR sky130_fd_sc_hd__tapvpwrvgnd_1
XTAP_112 VGND VPWR sky130_fd_sc_hd__tapvpwrvgnd_1
XTAP_123 VGND VPWR sky130_fd_sc_hd__tapvpwrvgnd_1
XTAP_134 VGND VPWR sky130_fd_sc_hd__tapvpwrvgnd_1
XTAP_145 VGND VPWR sky130_fd_sc_hd__tapvpwrvgnd_1
XTAP_156 VGND VPWR sky130_fd_sc_hd__tapvpwrvgnd_1
XTAP_167 VGND VPWR sky130_fd_sc_hd__tapvpwrvgnd_1
XTAP_178 VGND VPWR sky130_fd_sc_hd__tapvpwrvgnd_1
XFILLER_13_101 VGND VGND VPWR VPWR sky130_fd_sc_hd__fill_2
XFILLER_13_167 VGND VGND VPWR VPWR sky130_fd_sc_hd__fill_1
XFILLER_9_149 VGND VPWR VPWR VGND sky130_ef_sc_hd__decap_12
XFILLER_3_57 VGND VPWR VPWR VGND sky130_ef_sc_hd__decap_12
XFILLER_3_13 VGND VGND VPWR VPWR sky130_fd_sc_hd__fill_2
XFILLER_10_104 VGND VPWR VPWR VGND sky130_ef_sc_hd__decap_12
XFILLER_33_207 VGND VGND VPWR VPWR sky130_fd_sc_hd__decap_4
Xmux_left_track_31.mux_l2_in_0__102 VGND VGND VPWR VPWR mux_left_track_31.mux_l2_in_0_/A0
+ mux_left_track_31.mux_l2_in_0__102/LO sky130_fd_sc_hd__conb_1
XFILLER_24_218 VGND VGND VPWR VPWR sky130_fd_sc_hd__decap_4
XFILLER_23_54 VGND VGND VPWR VPWR sky130_fd_sc_hd__fill_2
XANTENNA_mux_top_track_0.mux_l1_in_0__A1 input51/X VGND VGND VPWR VPWR sky130_fd_sc_hd__diode_2
XFILLER_23_98 VGND VGND VPWR VPWR sky130_fd_sc_hd__decap_3
XFILLER_2_177 VGND VPWR VPWR VGND sky130_ef_sc_hd__decap_12
XFILLER_2_133 VGND VGND VPWR VPWR sky130_fd_sc_hd__decap_6
XANTENNA_input48_A left_bottom_grid_pin_5_ VGND VGND VPWR VPWR sky130_fd_sc_hd__diode_2
XFILLER_0_25 VGND VGND VPWR VPWR sky130_fd_sc_hd__decap_3
XFILLER_0_69 VGND VPWR VPWR VGND sky130_ef_sc_hd__decap_12
XFILLER_20_221 VGND VGND VPWR VPWR sky130_fd_sc_hd__fill_2
Xmux_left_track_9.sky130_fd_sc_hd__buf_4_0_ mux_left_track_9.mux_l2_in_0_/X VGND VGND
+ VPWR VPWR _072_/A sky130_fd_sc_hd__clkbuf_1
XFILLER_18_21 VGND VGND VPWR VPWR sky130_fd_sc_hd__fill_2
XFILLER_18_32 VGND VGND VPWR VPWR sky130_fd_sc_hd__decap_4
Xmux_left_track_31.sky130_fd_sc_hd__buf_4_0_ mux_left_track_31.mux_l2_in_0_/X VGND
+ VGND VPWR VPWR _083_/A sky130_fd_sc_hd__clkbuf_1
XFILLER_20_11 VGND VGND VPWR VPWR sky130_fd_sc_hd__fill_2
XFILLER_20_33 VGND VGND VPWR VPWR sky130_fd_sc_hd__fill_2
XFILLER_20_99 VGND VGND VPWR VPWR sky130_fd_sc_hd__fill_2
Xhold31 hold31/A VGND VGND VPWR VPWR hold31/X sky130_fd_sc_hd__clkdlybuf4s25_1
Xhold20 hold20/A VGND VGND VPWR VPWR hold20/X sky130_fd_sc_hd__clkdlybuf4s25_1
Xhold53 hold53/A VGND VGND VPWR VPWR hold53/X sky130_fd_sc_hd__clkdlybuf4s25_1
Xmux_top_track_10.mux_l2_in_0_ mux_top_track_10.mux_l2_in_0_/A0 mux_top_track_10.mux_l1_in_0_/X
+ hold9/A VGND VGND VPWR VPWR mux_top_track_10.mux_l2_in_0_/X sky130_fd_sc_hd__mux2_1
Xhold42 hold42/A VGND VGND VPWR VPWR hold42/X sky130_fd_sc_hd__clkdlybuf4s25_1
XFILLER_6_35 VGND VGND VPWR VPWR sky130_fd_sc_hd__fill_2
Xmem_left_track_35.sky130_fd_sc_hd__dfxtp_1_1_ clkbuf_3_2__f_mem_left_track_1.prog_clk/X
+ hold36/X VGND VGND VPWR VPWR hold58/A sky130_fd_sc_hd__dfxtp_1
XFILLER_15_33 VGND VGND VPWR VPWR sky130_fd_sc_hd__fill_2
XFILLER_15_44 VGND VGND VPWR VPWR sky130_fd_sc_hd__fill_2
XFILLER_31_32 VGND VGND VPWR VPWR sky130_fd_sc_hd__fill_2
Xoutput98 _095_/X VGND VGND VPWR VPWR chany_top_out[7] sky130_fd_sc_hd__buf_2
Xoutput65 _081_/X VGND VGND VPWR VPWR chanx_left_out[13] sky130_fd_sc_hd__buf_2
Xoutput76 _073_/X VGND VGND VPWR VPWR chanx_left_out[5] sky130_fd_sc_hd__buf_2
Xoutput87 _103_/X VGND VGND VPWR VPWR chany_top_out[15] sky130_fd_sc_hd__buf_2
XANTENNA_input30_A chany_top_in[17] VGND VGND VPWR VPWR sky130_fd_sc_hd__diode_2
XFILLER_16_154 VGND VGND VPWR VPWR sky130_fd_sc_hd__decap_4
XFILLER_31_113 VGND VGND VPWR VPWR sky130_fd_sc_hd__decap_3
XFILLER_31_124 VGND VGND VPWR VPWR sky130_fd_sc_hd__decap_3
XFILLER_31_135 VGND VGND VPWR VPWR sky130_fd_sc_hd__fill_2
XTAP_102 VGND VPWR sky130_fd_sc_hd__tapvpwrvgnd_1
XTAP_113 VGND VPWR sky130_fd_sc_hd__tapvpwrvgnd_1
XTAP_124 VGND VPWR sky130_fd_sc_hd__tapvpwrvgnd_1
Xmux_left_track_25.sky130_fd_sc_hd__buf_4_0_ mux_left_track_25.mux_l2_in_0_/X VGND
+ VGND VPWR VPWR _080_/A sky130_fd_sc_hd__clkbuf_1
XTAP_135 VGND VPWR sky130_fd_sc_hd__tapvpwrvgnd_1
XTAP_146 VGND VPWR sky130_fd_sc_hd__tapvpwrvgnd_1
XTAP_157 VGND VPWR sky130_fd_sc_hd__tapvpwrvgnd_1
XTAP_168 VGND VPWR sky130_fd_sc_hd__tapvpwrvgnd_1
XTAP_179 VGND VPWR sky130_fd_sc_hd__tapvpwrvgnd_1
XFILLER_3_69 VGND VPWR VPWR VGND sky130_ef_sc_hd__decap_12
XFILLER_3_25 VGND VGND VPWR VPWR sky130_fd_sc_hd__fill_2
XFILLER_10_116 VGND VPWR VPWR VGND sky130_ef_sc_hd__decap_12
XFILLER_6_109 VGND VPWR VPWR VGND sky130_ef_sc_hd__decap_12
XFILLER_5_6 VGND VGND VPWR VPWR sky130_fd_sc_hd__fill_2
Xmux_left_track_19.sky130_fd_sc_hd__buf_4_0_ mux_left_track_19.mux_l2_in_0_/X VGND
+ VGND VPWR VPWR _077_/A sky130_fd_sc_hd__clkbuf_1
Xmux_left_track_7.mux_l3_in_0_ mux_left_track_7.mux_l2_in_1_/X mux_left_track_7.mux_l2_in_0_/X
+ hold60/A VGND VGND VPWR VPWR mux_left_track_7.mux_l3_in_0_/X sky130_fd_sc_hd__mux2_1
Xmux_left_track_5.mux_l2_in_1__107 VGND VGND VPWR VPWR mux_left_track_5.mux_l2_in_1_/A0
+ mux_left_track_5.mux_l2_in_1__107/LO sky130_fd_sc_hd__conb_1
Xclkbuf_0_mem_left_track_1.prog_clk prog_clk_0_FTB00/X VGND VGND VPWR VPWR clkbuf_0_mem_left_track_1.prog_clk/X
+ sky130_fd_sc_hd__clkbuf_16
Xmem_top_track_10.sky130_fd_sc_hd__dfxtp_1_1_ clkbuf_3_1__f_mem_left_track_1.prog_clk/X
+ hold44/X VGND VGND VPWR VPWR hold9/A sky130_fd_sc_hd__dfxtp_1
XFILLER_2_189 VGND VGND VPWR VPWR sky130_fd_sc_hd__decap_6
XFILLER_9_13 VGND VGND VPWR VPWR sky130_fd_sc_hd__fill_2
XFILLER_18_11 VGND VGND VPWR VPWR sky130_fd_sc_hd__fill_2
Xmux_left_track_7.mux_l2_in_1_ mux_left_track_7.mux_l2_in_1_/A0 input44/X hold15/A
+ VGND VGND VPWR VPWR mux_left_track_7.mux_l2_in_1_/X sky130_fd_sc_hd__mux2_1
XFILLER_29_108 VGND VGND VPWR VPWR sky130_fd_sc_hd__decap_4
XFILLER_20_89 VGND VGND VPWR VPWR sky130_fd_sc_hd__fill_2
Xmux_top_track_14.mux_l2_in_0__113 VGND VGND VPWR VPWR mux_top_track_14.mux_l2_in_0_/A0
+ mux_top_track_14.mux_l2_in_0__113/LO sky130_fd_sc_hd__conb_1
Xhold32 hold32/A VGND VGND VPWR VPWR hold32/X sky130_fd_sc_hd__clkdlybuf4s25_1
Xhold10 hold10/A VGND VGND VPWR VPWR hold10/X sky130_fd_sc_hd__clkdlybuf4s25_1
Xhold21 hold21/A VGND VGND VPWR VPWR hold21/X sky130_fd_sc_hd__clkdlybuf4s25_1
Xhold54 hold54/A VGND VGND VPWR VPWR hold54/X sky130_fd_sc_hd__clkdlybuf4s25_1
XFILLER_29_54 VGND VGND VPWR VPWR sky130_fd_sc_hd__fill_2
XFILLER_29_65 VGND VGND VPWR VPWR sky130_fd_sc_hd__fill_1
XFILLER_29_98 VGND VGND VPWR VPWR sky130_fd_sc_hd__fill_2
Xhold43 hold43/A VGND VGND VPWR VPWR hold43/X sky130_fd_sc_hd__clkdlybuf4s25_1
XFILLER_6_47 VGND VGND VPWR VPWR sky130_fd_sc_hd__fill_2
XFILLER_6_25 VGND VGND VPWR VPWR sky130_fd_sc_hd__decap_3
XFILLER_20_6 VGND VGND VPWR VPWR sky130_fd_sc_hd__fill_2
XFILLER_19_163 VGND VGND VPWR VPWR sky130_fd_sc_hd__decap_4
Xmem_left_track_35.sky130_fd_sc_hd__dfxtp_1_0_ clkbuf_3_2__f_mem_left_track_1.prog_clk/X
+ hold30/X VGND VGND VPWR VPWR hold36/A sky130_fd_sc_hd__dfxtp_1
XFILLER_25_155 VGND VGND VPWR VPWR sky130_fd_sc_hd__fill_2
XFILLER_25_166 VGND VGND VPWR VPWR sky130_fd_sc_hd__fill_2
Xoutput99 _096_/X VGND VGND VPWR VPWR chany_top_out[8] sky130_fd_sc_hd__buf_2
XFILLER_0_221 VGND VGND VPWR VPWR sky130_fd_sc_hd__fill_2
Xoutput77 _074_/X VGND VGND VPWR VPWR chanx_left_out[6] sky130_fd_sc_hd__buf_2
Xoutput66 _082_/X VGND VGND VPWR VPWR chanx_left_out[14] sky130_fd_sc_hd__buf_2
Xoutput88 _104_/X VGND VGND VPWR VPWR chany_top_out[16] sky130_fd_sc_hd__buf_2
XANTENNA_input23_A chany_top_in[10] VGND VGND VPWR VPWR sky130_fd_sc_hd__diode_2
XFILLER_16_133 VGND VGND VPWR VPWR sky130_fd_sc_hd__fill_2
XTAP_103 VGND VPWR sky130_fd_sc_hd__tapvpwrvgnd_1
XTAP_114 VGND VPWR sky130_fd_sc_hd__tapvpwrvgnd_1
XTAP_125 VGND VPWR sky130_fd_sc_hd__tapvpwrvgnd_1
XTAP_136 VGND VPWR sky130_fd_sc_hd__tapvpwrvgnd_1
XTAP_147 VGND VPWR sky130_fd_sc_hd__tapvpwrvgnd_1
XTAP_158 VGND VPWR sky130_fd_sc_hd__tapvpwrvgnd_1
XTAP_169 VGND VPWR sky130_fd_sc_hd__tapvpwrvgnd_1
XFILLER_22_114 VGND VGND VPWR VPWR sky130_fd_sc_hd__fill_2
XFILLER_22_136 VGND VGND VPWR VPWR sky130_fd_sc_hd__decap_4
Xmux_top_track_10.mux_l1_in_0_ input8/X input52/X hold44/A VGND VGND VPWR VPWR mux_top_track_10.mux_l1_in_0_/X
+ sky130_fd_sc_hd__mux2_1
XANTENNA_mux_top_track_2.mux_l1_in_1__A0 input58/X VGND VGND VPWR VPWR sky130_fd_sc_hd__diode_2
XFILLER_13_169 VGND VPWR VPWR VGND sky130_ef_sc_hd__decap_12
Xmux_top_track_22.mux_l2_in_0_ mux_top_track_22.mux_l2_in_0_/A0 mux_top_track_22.mux_l1_in_0_/X
+ hold13/A VGND VGND VPWR VPWR mux_top_track_22.mux_l2_in_0_/X sky130_fd_sc_hd__mux2_1
XFILLER_3_37 VGND VGND VPWR VPWR sky130_fd_sc_hd__fill_2
XFILLER_8_195 VGND VGND VPWR VPWR sky130_fd_sc_hd__fill_1
XFILLER_27_217 VGND VGND VPWR VPWR sky130_fd_sc_hd__fill_2
XFILLER_10_128 VGND VPWR VPWR VGND sky130_ef_sc_hd__decap_12
XFILLER_18_206 VGND VPWR VPWR VGND sky130_ef_sc_hd__decap_12
Xmux_left_track_15.mux_l2_in_0_ mux_left_track_15.mux_l2_in_0_/A0 mux_left_track_15.mux_l1_in_0_/X
+ hold35/A VGND VGND VPWR VPWR mux_left_track_15.mux_l2_in_0_/X sky130_fd_sc_hd__mux2_1
Xmux_left_track_3.mux_l2_in_1__101 VGND VGND VPWR VPWR mux_left_track_3.mux_l2_in_1_/A0
+ mux_left_track_3.mux_l2_in_1__101/LO sky130_fd_sc_hd__conb_1
XFILLER_15_209 VGND VPWR VPWR VGND sky130_ef_sc_hd__decap_12
Xmem_top_track_10.sky130_fd_sc_hd__dfxtp_1_0_ clkbuf_3_1__f_mem_left_track_1.prog_clk/X
+ hold7/X VGND VGND VPWR VPWR hold44/A sky130_fd_sc_hd__dfxtp_1
XFILLER_23_34 VGND VGND VPWR VPWR sky130_fd_sc_hd__decap_4
Xprog_clk_0_FTB00 prog_clk_0_N_in VGND VGND VPWR VPWR prog_clk_0_FTB00/X sky130_fd_sc_hd__buf_8
XFILLER_18_89 VGND VGND VPWR VPWR sky130_fd_sc_hd__decap_4
XFILLER_7_205 VGND VGND VPWR VPWR sky130_fd_sc_hd__fill_1
Xmux_left_track_7.mux_l2_in_0_ mux_left_track_7.mux_l1_in_1_/X mux_left_track_7.mux_l1_in_0_/X
+ hold15/A VGND VGND VPWR VPWR mux_left_track_7.mux_l2_in_0_/X sky130_fd_sc_hd__mux2_1
XANTENNA_input53_A top_left_grid_pin_44_ VGND VGND VPWR VPWR sky130_fd_sc_hd__diode_2
XFILLER_1_81 VGND VPWR VPWR VGND sky130_ef_sc_hd__decap_12
Xmux_top_track_0.mux_l3_in_0_ mux_top_track_0.mux_l2_in_1_/X mux_top_track_0.mux_l2_in_0_/X
+ hold59/A VGND VGND VPWR VPWR mux_top_track_0.mux_l3_in_0_/X sky130_fd_sc_hd__mux2_1
Xhold22 hold22/A VGND VGND VPWR VPWR hold22/X sky130_fd_sc_hd__clkdlybuf4s25_1
Xhold11 hold11/A VGND VGND VPWR VPWR hold11/X sky130_fd_sc_hd__clkdlybuf4s25_1
Xhold55 hold55/A VGND VGND VPWR VPWR hold55/X sky130_fd_sc_hd__clkdlybuf4s25_1
Xhold44 hold44/A VGND VGND VPWR VPWR hold44/X sky130_fd_sc_hd__clkdlybuf4s25_1
Xhold33 hold33/A VGND VGND VPWR VPWR hold33/X sky130_fd_sc_hd__clkdlybuf4s25_1
XFILLER_6_59 VGND VPWR VPWR VGND sky130_ef_sc_hd__decap_12
Xmem_top_track_16.sky130_fd_sc_hd__dfxtp_1_1_ clkbuf_3_6__f_mem_left_track_1.prog_clk/X
+ hold12/X VGND VGND VPWR VPWR hold5/A sky130_fd_sc_hd__dfxtp_1
XFILLER_19_175 VGND VGND VPWR VPWR sky130_fd_sc_hd__fill_1
XFILLER_19_197 VGND VGND VPWR VPWR sky130_fd_sc_hd__decap_8
Xmux_left_track_7.mux_l1_in_1_ input42/X input49/X mux_left_track_7.mux_l1_in_1_/S
+ VGND VGND VPWR VPWR mux_left_track_7.mux_l1_in_1_/X sky130_fd_sc_hd__mux2_1
XFILLER_31_89 VGND VGND VPWR VPWR sky130_fd_sc_hd__fill_1
Xoutput78 _075_/X VGND VGND VPWR VPWR chanx_left_out[7] sky130_fd_sc_hd__buf_2
Xoutput67 _083_/X VGND VGND VPWR VPWR chanx_left_out[15] sky130_fd_sc_hd__buf_2
Xoutput89 _105_/X VGND VGND VPWR VPWR chany_top_out[17] sky130_fd_sc_hd__buf_2
XANTENNA_input16_A chanx_left_in[4] VGND VGND VPWR VPWR sky130_fd_sc_hd__diode_2
XFILLER_31_159 VGND VGND VPWR VPWR sky130_fd_sc_hd__fill_2
XTAP_104 VGND VPWR sky130_fd_sc_hd__tapvpwrvgnd_1
XTAP_115 VGND VPWR sky130_fd_sc_hd__tapvpwrvgnd_1
XTAP_126 VGND VPWR sky130_fd_sc_hd__tapvpwrvgnd_1
XTAP_137 VGND VPWR sky130_fd_sc_hd__tapvpwrvgnd_1
XTAP_148 VGND VPWR sky130_fd_sc_hd__tapvpwrvgnd_1
Xmux_top_track_0.mux_l2_in_1_ mux_top_track_0.mux_l2_in_1_/A0 mux_top_track_0.mux_l1_in_2_/X
+ hold61/A VGND VGND VPWR VPWR mux_top_track_0.mux_l2_in_1_/X sky130_fd_sc_hd__mux2_1
XTAP_159 VGND VPWR sky130_fd_sc_hd__tapvpwrvgnd_1
XFILLER_7_80 VGND VPWR VPWR VGND sky130_ef_sc_hd__decap_12
XANTENNA_input8_A chanx_left_in[15] VGND VGND VPWR VPWR sky130_fd_sc_hd__diode_2
XANTENNA_mux_left_track_1.mux_l1_in_1__A0 input50/X VGND VGND VPWR VPWR sky130_fd_sc_hd__diode_2
XANTENNA_mux_top_track_2.mux_l1_in_1__A1 input56/X VGND VGND VPWR VPWR sky130_fd_sc_hd__diode_2
XFILLER_26_67 VGND VGND VPWR VPWR sky130_fd_sc_hd__fill_2
XFILLER_26_78 VGND VGND VPWR VPWR sky130_fd_sc_hd__fill_2
XFILLER_13_159 VGND VGND VPWR VPWR sky130_fd_sc_hd__decap_8
Xmux_top_track_22.sky130_fd_sc_hd__buf_4_0_ mux_top_track_22.mux_l2_in_0_/X VGND VGND
+ VPWR VPWR _099_/A sky130_fd_sc_hd__clkbuf_1
XFILLER_8_141 VGND VPWR VPWR VGND sky130_ef_sc_hd__decap_12
Xmux_left_track_25.mux_l1_in_1__132 VGND VGND VPWR VPWR mux_left_track_25.mux_l1_in_1_/A0
+ mux_left_track_25.mux_l1_in_1__132/LO sky130_fd_sc_hd__conb_1
XFILLER_18_218 VGND VGND VPWR VPWR sky130_fd_sc_hd__decap_4
Xmux_top_track_0.mux_l1_in_2_ input2/X input59/X mux_top_track_0.mux_l1_in_2_/S VGND
+ VGND VPWR VPWR mux_top_track_0.mux_l1_in_2_/X sky130_fd_sc_hd__mux2_1
XFILLER_5_111 VGND VGND VPWR VPWR sky130_fd_sc_hd__fill_1
XFILLER_32_221 VGND VGND VPWR VPWR sky130_fd_sc_hd__fill_2
XANTENNA_mux_top_track_14.mux_l1_in_0__A0 input6/X VGND VGND VPWR VPWR sky130_fd_sc_hd__diode_2
Xmux_top_track_22.mux_l1_in_0_ input21/X input58/X hold41/A VGND VGND VPWR VPWR mux_top_track_22.mux_l1_in_0_/X
+ sky130_fd_sc_hd__mux2_1
Xmux_top_track_16.sky130_fd_sc_hd__buf_4_0_ mux_top_track_16.mux_l2_in_0_/X VGND VGND
+ VPWR VPWR _096_/A sky130_fd_sc_hd__clkbuf_1
XFILLER_23_210 VGND VGND VPWR VPWR sky130_fd_sc_hd__fill_2
XFILLER_23_13 VGND VGND VPWR VPWR sky130_fd_sc_hd__decap_4
XFILLER_0_39 VGND VGND VPWR VPWR sky130_fd_sc_hd__fill_2
XFILLER_9_26 VGND VGND VPWR VPWR sky130_fd_sc_hd__fill_2
XFILLER_14_221 VGND VGND VPWR VPWR sky130_fd_sc_hd__fill_2
Xmux_left_track_15.mux_l1_in_0_ input49/X input26/X hold23/A VGND VGND VPWR VPWR mux_left_track_15.mux_l1_in_0_/X
+ sky130_fd_sc_hd__mux2_1
XANTENNA_input46_A left_bottom_grid_pin_1_ VGND VGND VPWR VPWR sky130_fd_sc_hd__diode_2
Xmux_left_track_27.mux_l2_in_0_ mux_left_track_27.mux_l2_in_0_/A0 mux_left_track_27.mux_l1_in_0_/X
+ hold45/A VGND VGND VPWR VPWR mux_left_track_27.mux_l2_in_0_/X sky130_fd_sc_hd__mux2_1
XFILLER_1_93 VGND VPWR VPWR VGND sky130_ef_sc_hd__decap_12
XFILLER_4_209 VGND VPWR VPWR VGND sky130_ef_sc_hd__decap_12
Xhold34 hold34/A VGND VGND VPWR VPWR hold34/X sky130_fd_sc_hd__clkdlybuf4s25_1
Xhold45 hold45/A VGND VGND VPWR VPWR hold45/X sky130_fd_sc_hd__clkdlybuf4s25_1
Xhold12 hold12/A VGND VGND VPWR VPWR hold12/X sky130_fd_sc_hd__clkdlybuf4s25_1
Xhold56 hold56/A VGND VGND VPWR VPWR hold56/X sky130_fd_sc_hd__clkdlybuf4s25_1
Xhold23 hold23/A VGND VGND VPWR VPWR hold23/X sky130_fd_sc_hd__clkdlybuf4s25_1
XFILLER_6_16 VGND VGND VPWR VPWR sky130_fd_sc_hd__fill_2
Xmem_top_track_16.sky130_fd_sc_hd__dfxtp_1_0_ clkbuf_3_4__f_mem_left_track_1.prog_clk/X
+ hold6/X VGND VGND VPWR VPWR hold12/A sky130_fd_sc_hd__dfxtp_1
XFILLER_13_7 VGND VGND VPWR VPWR sky130_fd_sc_hd__fill_2
XFILLER_19_110 VGND VGND VPWR VPWR sky130_fd_sc_hd__fill_2
XFILLER_19_143 VGND VGND VPWR VPWR sky130_fd_sc_hd__fill_2
Xmux_left_track_13.mux_l2_in_0__126 VGND VGND VPWR VPWR mux_left_track_13.mux_l2_in_0_/A0
+ mux_left_track_13.mux_l2_in_0__126/LO sky130_fd_sc_hd__conb_1
Xmux_left_track_7.mux_l1_in_0_ input47/X input30/X mux_left_track_7.mux_l1_in_1_/S
+ VGND VGND VPWR VPWR mux_left_track_7.mux_l1_in_0_/X sky130_fd_sc_hd__mux2_1
Xmux_top_track_0.sky130_fd_sc_hd__buf_4_0_ mux_top_track_0.mux_l3_in_0_/X VGND VGND
+ VPWR VPWR _088_/A sky130_fd_sc_hd__clkbuf_1
XFILLER_31_13 VGND VGND VPWR VPWR sky130_fd_sc_hd__decap_3
XFILLER_31_57 VGND VGND VPWR VPWR sky130_fd_sc_hd__fill_2
Xoutput79 _076_/X VGND VGND VPWR VPWR chanx_left_out[8] sky130_fd_sc_hd__buf_2
Xoutput68 _084_/X VGND VGND VPWR VPWR chanx_left_out[16] sky130_fd_sc_hd__buf_2
XTAP_105 VGND VPWR sky130_fd_sc_hd__tapvpwrvgnd_1
XTAP_116 VGND VPWR sky130_fd_sc_hd__tapvpwrvgnd_1
XTAP_127 VGND VPWR sky130_fd_sc_hd__tapvpwrvgnd_1
XTAP_138 VGND VPWR sky130_fd_sc_hd__tapvpwrvgnd_1
XTAP_149 VGND VPWR sky130_fd_sc_hd__tapvpwrvgnd_1
Xmux_top_track_0.mux_l2_in_0_ mux_top_track_0.mux_l1_in_1_/X mux_top_track_0.mux_l1_in_0_/X
+ hold61/A VGND VGND VPWR VPWR mux_top_track_0.mux_l2_in_0_/X sky130_fd_sc_hd__mux2_1
XFILLER_30_160 VGND VGND VPWR VPWR sky130_fd_sc_hd__fill_2
XFILLER_7_92 VGND VPWR VPWR VGND sky130_ef_sc_hd__decap_12
XFILLER_30_193 VGND VGND VPWR VPWR sky130_fd_sc_hd__decap_3
XANTENNA_mux_left_track_1.mux_l1_in_1__A1 input48/X VGND VGND VPWR VPWR sky130_fd_sc_hd__diode_2
XFILLER_13_105 VGND VGND VPWR VPWR sky130_fd_sc_hd__fill_2
XFILLER_26_13 VGND VGND VPWR VPWR sky130_fd_sc_hd__decap_4
XFILLER_26_57 VGND VGND VPWR VPWR sky130_fd_sc_hd__fill_2
XFILLER_3_17 VGND VGND VPWR VPWR sky130_fd_sc_hd__fill_2
XANTENNA_mux_top_track_22.mux_l1_in_0__A0 input21/X VGND VGND VPWR VPWR sky130_fd_sc_hd__diode_2
XFILLER_8_153 VGND VPWR VPWR VGND sky130_ef_sc_hd__decap_12
XFILLER_8_197 VGND VGND VPWR VPWR sky130_fd_sc_hd__decap_4
XFILLER_12_26 VGND VGND VPWR VPWR sky130_fd_sc_hd__fill_2
Xmux_top_track_0.mux_l1_in_1_ input57/X input55/X mux_top_track_0.mux_l1_in_2_/S VGND
+ VGND VPWR VPWR mux_top_track_0.mux_l1_in_1_/X sky130_fd_sc_hd__mux2_1
XFILLER_5_167 VGND VGND VPWR VPWR sky130_fd_sc_hd__fill_1
Xmem_left_track_21.sky130_fd_sc_hd__dfxtp_1_1_ clkbuf_3_3__f_mem_left_track_1.prog_clk/X
+ hold25/X VGND VGND VPWR VPWR hold3/A sky130_fd_sc_hd__dfxtp_1
XANTENNA_mux_top_track_14.mux_l1_in_0__A1 input54/X VGND VGND VPWR VPWR sky130_fd_sc_hd__diode_2
XFILLER_23_200 VGND VGND VPWR VPWR sky130_fd_sc_hd__fill_2
XFILLER_23_222 VGND VGND VPWR VPWR sky130_fd_sc_hd__fill_1
XFILLER_0_29 VGND VGND VPWR VPWR sky130_fd_sc_hd__fill_2
XFILLER_9_49 VGND VGND VPWR VPWR sky130_fd_sc_hd__fill_2
XFILLER_1_181 VGND VPWR VPWR VGND sky130_ef_sc_hd__decap_12
Xmux_top_track_26.mux_l2_in_0__120 VGND VGND VPWR VPWR mux_top_track_26.mux_l2_in_0_/A0
+ mux_top_track_26.mux_l2_in_0__120/LO sky130_fd_sc_hd__conb_1
XANTENNA_mux_top_track_6.mux_l1_in_0__A0 input54/X VGND VGND VPWR VPWR sky130_fd_sc_hd__diode_2
XFILLER_29_5 VGND VGND VPWR VPWR sky130_fd_sc_hd__fill_2
XANTENNA_input39_A chany_top_in[7] VGND VGND VPWR VPWR sky130_fd_sc_hd__diode_2
XFILLER_20_26 VGND VGND VPWR VPWR sky130_fd_sc_hd__fill_2
Xclkbuf_3_3__f_mem_left_track_1.prog_clk clkbuf_0_mem_left_track_1.prog_clk/X VGND
+ VGND VPWR VPWR clkbuf_3_3__f_mem_left_track_1.prog_clk/X sky130_fd_sc_hd__clkbuf_16
Xhold57 hold57/A VGND VGND VPWR VPWR hold57/X sky130_fd_sc_hd__clkdlybuf4s25_1
Xhold13 hold13/A VGND VGND VPWR VPWR hold13/X sky130_fd_sc_hd__clkdlybuf4s25_1
Xhold24 hold24/A VGND VGND VPWR VPWR hold24/X sky130_fd_sc_hd__clkdlybuf4s25_1
XFILLER_28_122 VGND VGND VPWR VPWR sky130_fd_sc_hd__fill_2
Xhold46 hold46/A VGND VGND VPWR VPWR hold46/X sky130_fd_sc_hd__clkdlybuf4s25_1
Xhold35 hold35/A VGND VGND VPWR VPWR hold35/X sky130_fd_sc_hd__clkdlybuf4s25_1
XFILLER_28_133 VGND VGND VPWR VPWR sky130_fd_sc_hd__fill_2
XFILLER_6_39 VGND VGND VPWR VPWR sky130_fd_sc_hd__fill_2
XFILLER_15_15 VGND VGND VPWR VPWR sky130_fd_sc_hd__fill_2
XFILLER_33_191 VGND VGND VPWR VPWR sky130_fd_sc_hd__decap_4
Xmux_left_track_27.mux_l1_in_0_ input47/X input39/X hold48/A VGND VGND VPWR VPWR mux_left_track_27.mux_l1_in_0_/X
+ sky130_fd_sc_hd__mux2_1
Xoutput69 _085_/X VGND VGND VPWR VPWR chanx_left_out[17] sky130_fd_sc_hd__buf_2
XFILLER_16_114 VGND VGND VPWR VPWR sky130_fd_sc_hd__decap_3
XFILLER_31_106 VGND VGND VPWR VPWR sky130_fd_sc_hd__fill_2
Xmux_left_track_39.mux_l2_in_0_ mux_left_track_39.mux_l2_in_0_/A0 mux_left_track_39.mux_l1_in_0_/X
+ output60/A VGND VGND VPWR VPWR mux_left_track_39.mux_l2_in_0_/X sky130_fd_sc_hd__mux2_1
XTAP_106 VGND VPWR sky130_fd_sc_hd__tapvpwrvgnd_1
XTAP_117 VGND VPWR sky130_fd_sc_hd__tapvpwrvgnd_1
XTAP_128 VGND VPWR sky130_fd_sc_hd__tapvpwrvgnd_1
XTAP_139 VGND VPWR sky130_fd_sc_hd__tapvpwrvgnd_1
XPHY_0 VGND VGND VPWR VPWR sky130_fd_sc_hd__decap_3
XFILLER_30_183 VGND VGND VPWR VPWR sky130_fd_sc_hd__fill_2
XFILLER_7_71 VGND VGND VPWR VPWR sky130_fd_sc_hd__decap_3
XFILLER_13_139 VGND VGND VPWR VPWR sky130_fd_sc_hd__decap_4
XFILLER_26_25 VGND VGND VPWR VPWR sky130_fd_sc_hd__decap_3
XFILLER_3_29 VGND VGND VPWR VPWR sky130_fd_sc_hd__fill_2
XANTENNA_input21_A chanx_left_in[9] VGND VGND VPWR VPWR sky130_fd_sc_hd__diode_2
XANTENNA_mux_top_track_22.mux_l1_in_0__A1 input58/X VGND VGND VPWR VPWR sky130_fd_sc_hd__diode_2
XFILLER_8_165 VGND VPWR VPWR VGND sky130_ef_sc_hd__decap_12
XANTENNA_mux_left_track_15.mux_l1_in_0__A0 input49/X VGND VGND VPWR VPWR sky130_fd_sc_hd__diode_2
Xmux_top_track_0.mux_l1_in_0_ input53/X input51/X mux_top_track_0.mux_l1_in_2_/S VGND
+ VGND VPWR VPWR mux_top_track_0.mux_l1_in_0_/X sky130_fd_sc_hd__mux2_1
XFILLER_5_113 VGND VPWR VPWR VGND sky130_ef_sc_hd__decap_12
Xmem_left_track_21.sky130_fd_sc_hd__dfxtp_1_0_ clkbuf_3_2__f_mem_left_track_1.prog_clk/X
+ hold1/X VGND VGND VPWR VPWR hold25/A sky130_fd_sc_hd__dfxtp_1
XFILLER_4_83 VGND VGND VPWR VPWR sky130_fd_sc_hd__fill_1
XFILLER_0_19 VGND VGND VPWR VPWR sky130_fd_sc_hd__fill_2
XFILLER_13_81 VGND VGND VPWR VPWR sky130_fd_sc_hd__decap_4
XFILLER_1_193 VGND VPWR VPWR VGND sky130_ef_sc_hd__decap_12
XANTENNA_mux_top_track_6.mux_l1_in_0__A1 input52/X VGND VGND VPWR VPWR sky130_fd_sc_hd__diode_2
XFILLER_18_26 VGND VGND VPWR VPWR sky130_fd_sc_hd__fill_2
X_099_ _099_/A VGND VGND VPWR VPWR _099_/X sky130_fd_sc_hd__clkbuf_1
XFILLER_27_3 VGND VGND VPWR VPWR sky130_fd_sc_hd__fill_2
XFILLER_1_51 VGND VGND VPWR VPWR sky130_fd_sc_hd__decap_4
Xmem_left_track_27.sky130_fd_sc_hd__dfxtp_1_1_ clkbuf_3_0__f_mem_left_track_1.prog_clk/X
+ hold48/X VGND VGND VPWR VPWR hold45/A sky130_fd_sc_hd__dfxtp_1
XFILLER_20_16 VGND VGND VPWR VPWR sky130_fd_sc_hd__fill_2
Xhold14 hold14/A VGND VGND VPWR VPWR hold14/X sky130_fd_sc_hd__clkdlybuf4s25_1
Xhold58 hold58/A VGND VGND VPWR VPWR hold58/X sky130_fd_sc_hd__clkdlybuf4s25_1
Xhold36 hold36/A VGND VGND VPWR VPWR hold36/X sky130_fd_sc_hd__clkdlybuf4s25_1
XFILLER_29_25 VGND VGND VPWR VPWR sky130_fd_sc_hd__fill_2
XFILLER_29_36 VGND VGND VPWR VPWR sky130_fd_sc_hd__fill_2
Xhold25 hold25/A VGND VGND VPWR VPWR hold25/X sky130_fd_sc_hd__clkdlybuf4s25_1
Xhold47 hold47/A VGND VGND VPWR VPWR hold47/X sky130_fd_sc_hd__clkdlybuf4s25_1
XFILLER_28_178 VGND VGND VPWR VPWR sky130_fd_sc_hd__fill_2
XANTENNA_input51_A top_left_grid_pin_42_ VGND VGND VPWR VPWR sky130_fd_sc_hd__diode_2
XFILLER_10_82 VGND VGND VPWR VPWR sky130_fd_sc_hd__fill_2
XFILLER_19_101 VGND VGND VPWR VPWR sky130_fd_sc_hd__fill_2
XFILLER_19_167 VGND VGND VPWR VPWR sky130_fd_sc_hd__fill_1