* NGSPICE file created from sb_2__1_.ext - technology: sky130A

* Black-box entry subcircuit for sky130_fd_sc_hd__tapvpwrvgnd_1 abstract view
.subckt sky130_fd_sc_hd__tapvpwrvgnd_1 VGND VPWR
.ends

* Black-box entry subcircuit for sky130_fd_sc_hd__fill_1 abstract view
.subckt sky130_fd_sc_hd__fill_1 VGND VNB VPB VPWR
.ends

* Black-box entry subcircuit for sky130_fd_sc_hd__dfxtp_1 abstract view
.subckt sky130_fd_sc_hd__dfxtp_1 CLK D VGND VNB VPB VPWR Q
.ends

* Black-box entry subcircuit for sky130_fd_sc_hd__fill_2 abstract view
.subckt sky130_fd_sc_hd__fill_2 VGND VNB VPB VPWR
.ends

* Black-box entry subcircuit for sky130_ef_sc_hd__decap_12 abstract view
.subckt sky130_ef_sc_hd__decap_12 VGND VPWR VPB VNB
.ends

* Black-box entry subcircuit for sky130_fd_sc_hd__mux2_1 abstract view
.subckt sky130_fd_sc_hd__mux2_1 A0 A1 S VGND VNB VPB VPWR X
.ends

* Black-box entry subcircuit for sky130_fd_sc_hd__diode_2 abstract view
.subckt sky130_fd_sc_hd__diode_2 DIODE VGND VNB VPB VPWR
.ends

* Black-box entry subcircuit for sky130_fd_sc_hd__decap_6 abstract view
.subckt sky130_fd_sc_hd__decap_6 VGND VNB VPB VPWR
.ends

* Black-box entry subcircuit for sky130_fd_sc_hd__clkbuf_1 abstract view
.subckt sky130_fd_sc_hd__clkbuf_1 A VGND VNB VPB VPWR X
.ends

* Black-box entry subcircuit for sky130_fd_sc_hd__clkdlybuf4s25_1 abstract view
.subckt sky130_fd_sc_hd__clkdlybuf4s25_1 A VGND VNB VPB VPWR X
.ends

* Black-box entry subcircuit for sky130_fd_sc_hd__buf_2 abstract view
.subckt sky130_fd_sc_hd__buf_2 A VGND VNB VPB VPWR X
.ends

* Black-box entry subcircuit for sky130_fd_sc_hd__decap_3 abstract view
.subckt sky130_fd_sc_hd__decap_3 VGND VNB VPB VPWR
.ends

* Black-box entry subcircuit for sky130_fd_sc_hd__conb_1 abstract view
.subckt sky130_fd_sc_hd__conb_1 VGND VNB VPB VPWR HI LO
.ends

* Black-box entry subcircuit for sky130_fd_sc_hd__decap_8 abstract view
.subckt sky130_fd_sc_hd__decap_8 VGND VNB VPB VPWR
.ends

* Black-box entry subcircuit for sky130_fd_sc_hd__decap_4 abstract view
.subckt sky130_fd_sc_hd__decap_4 VGND VNB VPB VPWR
.ends

* Black-box entry subcircuit for sky130_fd_sc_hd__buf_8 abstract view
.subckt sky130_fd_sc_hd__buf_8 A VGND VNB VPB VPWR X
.ends

* Black-box entry subcircuit for sky130_fd_sc_hd__clkbuf_2 abstract view
.subckt sky130_fd_sc_hd__clkbuf_2 A VGND VNB VPB VPWR X
.ends

* Black-box entry subcircuit for sky130_fd_sc_hd__dlymetal6s2s_1 abstract view
.subckt sky130_fd_sc_hd__dlymetal6s2s_1 A VGND VNB VPB VPWR X
.ends

* Black-box entry subcircuit for sky130_fd_sc_hd__clkbuf_16 abstract view
.subckt sky130_fd_sc_hd__clkbuf_16 A VGND VNB VPB VPWR X
.ends

.subckt sb_2__1_ VGND VPWR bottom_left_grid_pin_42_ bottom_left_grid_pin_43_ bottom_left_grid_pin_44_
+ bottom_left_grid_pin_45_ bottom_left_grid_pin_46_ bottom_left_grid_pin_47_ bottom_left_grid_pin_48_
+ bottom_left_grid_pin_49_ bottom_right_grid_pin_1_ ccff_head ccff_tail chanx_left_in[0]
+ chanx_left_in[10] chanx_left_in[11] chanx_left_in[12] chanx_left_in[13] chanx_left_in[14]
+ chanx_left_in[15] chanx_left_in[16] chanx_left_in[17] chanx_left_in[18] chanx_left_in[19]
+ chanx_left_in[1] chanx_left_in[2] chanx_left_in[3] chanx_left_in[4] chanx_left_in[5]
+ chanx_left_in[6] chanx_left_in[7] chanx_left_in[8] chanx_left_in[9] chanx_left_out[0]
+ chanx_left_out[10] chanx_left_out[11] chanx_left_out[12] chanx_left_out[13] chanx_left_out[14]
+ chanx_left_out[15] chanx_left_out[16] chanx_left_out[17] chanx_left_out[18] chanx_left_out[19]
+ chanx_left_out[1] chanx_left_out[2] chanx_left_out[3] chanx_left_out[4] chanx_left_out[5]
+ chanx_left_out[6] chanx_left_out[7] chanx_left_out[8] chanx_left_out[9] chany_bottom_in[0]
+ chany_bottom_in[10] chany_bottom_in[11] chany_bottom_in[12] chany_bottom_in[13]
+ chany_bottom_in[14] chany_bottom_in[15] chany_bottom_in[16] chany_bottom_in[17]
+ chany_bottom_in[18] chany_bottom_in[19] chany_bottom_in[1] chany_bottom_in[2] chany_bottom_in[3]
+ chany_bottom_in[4] chany_bottom_in[5] chany_bottom_in[6] chany_bottom_in[7] chany_bottom_in[8]
+ chany_bottom_in[9] chany_bottom_out[0] chany_bottom_out[10] chany_bottom_out[11]
+ chany_bottom_out[12] chany_bottom_out[13] chany_bottom_out[14] chany_bottom_out[15]
+ chany_bottom_out[16] chany_bottom_out[17] chany_bottom_out[18] chany_bottom_out[19]
+ chany_bottom_out[1] chany_bottom_out[2] chany_bottom_out[3] chany_bottom_out[4]
+ chany_bottom_out[5] chany_bottom_out[6] chany_bottom_out[7] chany_bottom_out[8]
+ chany_bottom_out[9] chany_top_in[0] chany_top_in[10] chany_top_in[11] chany_top_in[12]
+ chany_top_in[13] chany_top_in[14] chany_top_in[15] chany_top_in[16] chany_top_in[17]
+ chany_top_in[18] chany_top_in[19] chany_top_in[1] chany_top_in[2] chany_top_in[3]
+ chany_top_in[4] chany_top_in[5] chany_top_in[6] chany_top_in[7] chany_top_in[8]
+ chany_top_in[9] chany_top_out[0] chany_top_out[10] chany_top_out[11] chany_top_out[12]
+ chany_top_out[13] chany_top_out[14] chany_top_out[15] chany_top_out[16] chany_top_out[17]
+ chany_top_out[18] chany_top_out[19] chany_top_out[1] chany_top_out[2] chany_top_out[3]
+ chany_top_out[4] chany_top_out[5] chany_top_out[6] chany_top_out[7] chany_top_out[8]
+ chany_top_out[9] left_bottom_grid_pin_34_ left_bottom_grid_pin_35_ left_bottom_grid_pin_36_
+ left_bottom_grid_pin_37_ left_bottom_grid_pin_38_ left_bottom_grid_pin_39_ left_bottom_grid_pin_40_
+ left_bottom_grid_pin_41_ prog_clk_0_N_in top_left_grid_pin_42_ top_left_grid_pin_43_
+ top_left_grid_pin_44_ top_left_grid_pin_45_ top_left_grid_pin_46_ top_left_grid_pin_47_
+ top_left_grid_pin_48_ top_left_grid_pin_49_ top_right_grid_pin_1_
XTAP_188 VGND VPWR sky130_fd_sc_hd__tapvpwrvgnd_1
XTAP_177 VGND VPWR sky130_fd_sc_hd__tapvpwrvgnd_1
XFILLER_22_122 VGND VGND VPWR VPWR sky130_fd_sc_hd__fill_1
XFILLER_22_100 VGND VGND VPWR VPWR sky130_fd_sc_hd__fill_1
XFILLER_26_41 VGND VGND VPWR VPWR sky130_fd_sc_hd__fill_1
Xmem_left_track_17.sky130_fd_sc_hd__dfxtp_1_0_ clkbuf_3_5__f_mem_bottom_track_1.prog_clk/X
+ hold42/X VGND VGND VPWR VPWR mux_left_track_17.mux_l1_in_1_/S sky130_fd_sc_hd__dfxtp_1
XFILLER_13_166 VGND VGND VPWR VPWR sky130_fd_sc_hd__fill_2
XFILLER_13_122 VGND VPWR VPWR VGND sky130_ef_sc_hd__decap_12
XFILLER_13_111 VGND VGND VPWR VPWR sky130_fd_sc_hd__fill_1
Xmux_bottom_track_3.mux_l1_in_1_ input3/X input1/X hold34/A VGND VGND VPWR VPWR mux_bottom_track_3.mux_l1_in_1_/X
+ sky130_fd_sc_hd__mux2_1
XANTENNA__124__A _124_/A VGND VGND VPWR VPWR sky130_fd_sc_hd__diode_2
XFILLER_30_209 VGND VPWR VPWR VGND sky130_ef_sc_hd__decap_12
XFILLER_15_217 VGND VGND VPWR VPWR sky130_fd_sc_hd__decap_6
XANTENNA__119__A _119_/A VGND VGND VPWR VPWR sky130_fd_sc_hd__diode_2
XANTENNA_input55_A chany_top_in[13] VGND VGND VPWR VPWR sky130_fd_sc_hd__diode_2
XFILLER_9_66 VGND VGND VPWR VPWR sky130_fd_sc_hd__fill_1
XFILLER_2_154 VGND VGND VPWR VPWR sky130_fd_sc_hd__fill_1
XFILLER_12_209 VGND VPWR VPWR VGND sky130_ef_sc_hd__decap_12
X_114_ _114_/A VGND VGND VPWR VPWR _114_/X sky130_fd_sc_hd__clkbuf_1
XFILLER_18_31 VGND VGND VPWR VPWR sky130_fd_sc_hd__fill_1
Xmux_bottom_track_17.mux_l1_in_0_ _104_/A _095_/A mux_bottom_track_17.mux_l1_in_3_/S
+ VGND VGND VPWR VPWR mux_bottom_track_17.mux_l1_in_0_/X sky130_fd_sc_hd__mux2_1
Xmem_bottom_track_25.sky130_fd_sc_hd__dfxtp_1_2_ clkbuf_3_2__f_mem_bottom_track_1.prog_clk/X
+ mux_bottom_track_25.mux_l2_in_1_/S VGND VGND VPWR VPWR hold40/A sky130_fd_sc_hd__dfxtp_1
Xhold41 hold41/A VGND VGND VPWR VPWR hold41/X sky130_fd_sc_hd__clkdlybuf4s25_1
XFILLER_20_87 VGND VGND VPWR VPWR sky130_fd_sc_hd__fill_1
XFILLER_20_65 VGND VGND VPWR VPWR sky130_fd_sc_hd__fill_1
XANTENNA_input18_A chanx_left_in[16] VGND VGND VPWR VPWR sky130_fd_sc_hd__diode_2
Xhold30 hold30/A VGND VGND VPWR VPWR hold30/X sky130_fd_sc_hd__clkdlybuf4s25_1
XFILLER_19_161 VGND VGND VPWR VPWR sky130_fd_sc_hd__decap_6
XFILLER_13_3 VGND VGND VPWR VPWR sky130_fd_sc_hd__fill_1
XFILLER_15_98 VGND VGND VPWR VPWR sky130_fd_sc_hd__fill_1
Xoutput97 _083_/X VGND VGND VPWR VPWR chanx_left_out[17] sky130_fd_sc_hd__buf_2
XFILLER_16_197 VGND VPWR VPWR VGND sky130_ef_sc_hd__decap_12
XFILLER_16_164 VGND VPWR VPWR VGND sky130_ef_sc_hd__decap_12
XFILLER_16_120 VGND VGND VPWR VPWR sky130_fd_sc_hd__fill_1
Xmux_bottom_track_3.sky130_fd_sc_hd__buf_4_0_ mux_bottom_track_3.mux_l4_in_0_/X VGND
+ VGND VPWR VPWR _087_/A sky130_fd_sc_hd__clkbuf_1
XTAP_189 VGND VPWR sky130_fd_sc_hd__tapvpwrvgnd_1
XTAP_178 VGND VPWR sky130_fd_sc_hd__tapvpwrvgnd_1
XTAP_167 VGND VPWR sky130_fd_sc_hd__tapvpwrvgnd_1
XTAP_156 VGND VPWR sky130_fd_sc_hd__tapvpwrvgnd_1
XFILLER_22_145 VGND VGND VPWR VPWR sky130_fd_sc_hd__fill_1
XFILLER_22_112 VGND VGND VPWR VPWR sky130_fd_sc_hd__fill_1
XTAP_145 VGND VPWR sky130_fd_sc_hd__tapvpwrvgnd_1
XTAP_134 VGND VPWR sky130_fd_sc_hd__tapvpwrvgnd_1
XTAP_123 VGND VPWR sky130_fd_sc_hd__tapvpwrvgnd_1
XTAP_112 VGND VPWR sky130_fd_sc_hd__tapvpwrvgnd_1
XTAP_101 VGND VPWR sky130_fd_sc_hd__tapvpwrvgnd_1
Xmem_bottom_track_3.sky130_fd_sc_hd__dfxtp_1_3_ clkbuf_3_0__f_mem_bottom_track_1.prog_clk/X
+ mux_bottom_track_3.mux_l3_in_1_/S VGND VGND VPWR VPWR hold23/A sky130_fd_sc_hd__dfxtp_1
XANTENNA_input85_A top_left_grid_pin_48_ VGND VGND VPWR VPWR sky130_fd_sc_hd__diode_2
XFILLER_13_134 VGND VGND VPWR VPWR sky130_fd_sc_hd__fill_1
Xmux_bottom_track_3.mux_l1_in_0_ _100_/A _091_/A hold34/A VGND VGND VPWR VPWR mux_bottom_track_3.mux_l1_in_0_/X
+ sky130_fd_sc_hd__mux2_1
XFILLER_10_137 VGND VGND VPWR VPWR sky130_fd_sc_hd__decap_3
Xmux_bottom_track_33.mux_l2_in_1__179 VGND VGND VPWR VPWR mux_bottom_track_33.mux_l2_in_1_/A0
+ mux_bottom_track_33.mux_l2_in_1__179/LO sky130_fd_sc_hd__conb_1
XANTENNA_mux_top_track_0.mux_l1_in_0__A1 input79/X VGND VGND VPWR VPWR sky130_fd_sc_hd__diode_2
XFILLER_23_76 VGND VGND VPWR VPWR sky130_fd_sc_hd__fill_1
XFILLER_2_188 VGND VGND VPWR VPWR sky130_fd_sc_hd__decap_8
XANTENNA_input48_A chany_bottom_in[7] VGND VGND VPWR VPWR sky130_fd_sc_hd__diode_2
XFILLER_20_221 VGND VGND VPWR VPWR sky130_fd_sc_hd__fill_2
Xmux_left_track_9.sky130_fd_sc_hd__buf_4_0_ mux_left_track_9.mux_l3_in_0_/X VGND VGND
+ VPWR VPWR _070_/A sky130_fd_sc_hd__clkbuf_1
X_113_ _113_/A VGND VGND VPWR VPWR _113_/X sky130_fd_sc_hd__clkbuf_1
Xmem_bottom_track_25.sky130_fd_sc_hd__dfxtp_1_1_ clkbuf_3_2__f_mem_bottom_track_1.prog_clk/X
+ mux_bottom_track_25.mux_l1_in_2_/S VGND VGND VPWR VPWR mux_bottom_track_25.mux_l2_in_1_/S
+ sky130_fd_sc_hd__dfxtp_1
Xhold31 hold31/A VGND VGND VPWR VPWR hold31/X sky130_fd_sc_hd__clkdlybuf4s25_1
Xmux_left_track_31.sky130_fd_sc_hd__buf_4_0_ mux_left_track_31.mux_l2_in_0_/X VGND
+ VGND VPWR VPWR _081_/A sky130_fd_sc_hd__clkbuf_1
Xhold20 hold20/A VGND VGND VPWR VPWR hold20/X sky130_fd_sc_hd__clkdlybuf4s25_1
Xhold42 hold42/A VGND VGND VPWR VPWR hold42/X sky130_fd_sc_hd__clkdlybuf4s25_1
XFILLER_20_33 VGND VGND VPWR VPWR sky130_fd_sc_hd__fill_1
Xmem_left_track_35.sky130_fd_sc_hd__dfxtp_1_1_ clkbuf_3_5__f_mem_bottom_track_1.prog_clk/X
+ hold24/X VGND VGND VPWR VPWR hold37/A sky130_fd_sc_hd__dfxtp_1
XFILLER_28_195 VGND VGND VPWR VPWR sky130_fd_sc_hd__fill_1
XFILLER_6_35 VGND VGND VPWR VPWR sky130_fd_sc_hd__fill_1
Xmux_left_track_7.mux_l1_in_3_ mux_left_track_7.mux_l1_in_3_/A0 input78/X mux_left_track_7.mux_l1_in_3_/S
+ VGND VGND VPWR VPWR mux_left_track_7.mux_l1_in_3_/X sky130_fd_sc_hd__mux2_1
XFILLER_31_98 VGND VGND VPWR VPWR sky130_fd_sc_hd__fill_1
Xoutput98 _084_/X VGND VGND VPWR VPWR chanx_left_out[18] sky130_fd_sc_hd__buf_2
XFILLER_16_176 VGND VPWR VPWR VGND sky130_ef_sc_hd__decap_12
XFILLER_16_143 VGND VGND VPWR VPWR sky130_fd_sc_hd__fill_2
XANTENNA_input30_A chanx_left_in[9] VGND VGND VPWR VPWR sky130_fd_sc_hd__diode_2
XTAP_179 VGND VPWR sky130_fd_sc_hd__tapvpwrvgnd_1
Xmux_left_track_25.sky130_fd_sc_hd__buf_4_0_ mux_left_track_25.mux_l2_in_0_/X VGND
+ VGND VPWR VPWR _078_/A sky130_fd_sc_hd__clkbuf_1
XTAP_168 VGND VPWR sky130_fd_sc_hd__tapvpwrvgnd_1
Xmux_left_track_15.mux_l3_in_0_ mux_left_track_15.mux_l2_in_1_/X mux_left_track_15.mux_l2_in_0_/X
+ hold42/A VGND VGND VPWR VPWR mux_left_track_15.mux_l3_in_0_/X sky130_fd_sc_hd__mux2_1
XTAP_157 VGND VPWR sky130_fd_sc_hd__tapvpwrvgnd_1
XTAP_146 VGND VPWR sky130_fd_sc_hd__tapvpwrvgnd_1
XTAP_135 VGND VPWR sky130_fd_sc_hd__tapvpwrvgnd_1
Xmux_top_track_0.mux_l2_in_3_ mux_top_track_0.mux_l2_in_3_/A0 input16/X mux_top_track_0.mux_l2_in_3_/S
+ VGND VGND VPWR VPWR mux_top_track_0.mux_l2_in_3_/X sky130_fd_sc_hd__mux2_1
XTAP_124 VGND VPWR sky130_fd_sc_hd__tapvpwrvgnd_1
XTAP_113 VGND VPWR sky130_fd_sc_hd__tapvpwrvgnd_1
XTAP_102 VGND VPWR sky130_fd_sc_hd__tapvpwrvgnd_1
Xmem_bottom_track_3.sky130_fd_sc_hd__dfxtp_1_2_ clkbuf_3_0__f_mem_bottom_track_1.prog_clk/X
+ mux_bottom_track_3.mux_l2_in_3_/S VGND VGND VPWR VPWR mux_bottom_track_3.mux_l3_in_1_/S
+ sky130_fd_sc_hd__dfxtp_1
XFILLER_26_87 VGND VGND VPWR VPWR sky130_fd_sc_hd__fill_1
XFILLER_13_146 VGND VPWR VPWR VGND sky130_ef_sc_hd__decap_12
XANTENNA_input78_A left_bottom_grid_pin_41_ VGND VGND VPWR VPWR sky130_fd_sc_hd__diode_2
XFILLER_27_205 VGND VPWR VPWR VGND sky130_ef_sc_hd__decap_12
Xmux_left_track_19.sky130_fd_sc_hd__buf_4_0_ mux_left_track_19.mux_l2_in_0_/X VGND
+ VGND VPWR VPWR _075_/A sky130_fd_sc_hd__clkbuf_1
Xmux_left_track_15.mux_l2_in_1_ mux_left_track_15.mux_l2_in_1_/A0 input74/X hold11/A
+ VGND VGND VPWR VPWR mux_left_track_15.mux_l2_in_1_/X sky130_fd_sc_hd__mux2_1
Xmux_left_track_7.mux_l3_in_0_ mux_left_track_7.mux_l2_in_1_/X mux_left_track_7.mux_l2_in_0_/X
+ hold28/A VGND VGND VPWR VPWR mux_left_track_7.mux_l3_in_0_/X sky130_fd_sc_hd__mux2_1
Xmux_top_track_0.mux_l4_in_0_ mux_top_track_0.mux_l3_in_1_/X mux_top_track_0.mux_l3_in_0_/X
+ hold22/A VGND VGND VPWR VPWR mux_top_track_0.mux_l4_in_0_/X sky130_fd_sc_hd__mux2_1
XFILLER_2_178 VGND VGND VPWR VPWR sky130_fd_sc_hd__decap_4
Xmem_bottom_track_9.sky130_fd_sc_hd__dfxtp_1_3_ clkbuf_3_2__f_mem_bottom_track_1.prog_clk/X
+ mux_bottom_track_9.mux_l3_in_1_/S VGND VGND VPWR VPWR hold38/A sky130_fd_sc_hd__dfxtp_1
X_112_ _112_/A VGND VGND VPWR VPWR _112_/X sky130_fd_sc_hd__clkbuf_1
Xmux_left_track_7.mux_l2_in_1_ mux_left_track_7.mux_l1_in_3_/X mux_left_track_7.mux_l1_in_2_/X
+ mux_left_track_7.mux_l2_in_1_/S VGND VGND VPWR VPWR mux_left_track_7.mux_l2_in_1_/X
+ sky130_fd_sc_hd__mux2_1
XFILLER_7_204 VGND VPWR VPWR VGND sky130_ef_sc_hd__decap_12
XANTENNA_input60_A chany_top_in[18] VGND VGND VPWR VPWR sky130_fd_sc_hd__diode_2
Xmem_bottom_track_25.sky130_fd_sc_hd__dfxtp_1_0_ clkbuf_3_3__f_mem_bottom_track_1.prog_clk/X
+ hold14/X VGND VGND VPWR VPWR mux_bottom_track_25.mux_l1_in_2_/S sky130_fd_sc_hd__dfxtp_1
XFILLER_29_108 VGND VGND VPWR VPWR sky130_fd_sc_hd__fill_1
Xmux_top_track_0.mux_l3_in_1_ mux_top_track_0.mux_l2_in_3_/X mux_top_track_0.mux_l2_in_2_/X
+ mux_top_track_0.mux_l3_in_1_/S VGND VGND VPWR VPWR mux_top_track_0.mux_l3_in_1_/X
+ sky130_fd_sc_hd__mux2_1
Xhold32 hold32/A VGND VGND VPWR VPWR hold32/X sky130_fd_sc_hd__clkdlybuf4s25_1
Xhold21 hold21/A VGND VGND VPWR VPWR hold21/X sky130_fd_sc_hd__clkdlybuf4s25_1
Xhold10 hold10/A VGND VGND VPWR VPWR hold10/X sky130_fd_sc_hd__clkdlybuf4s25_1
XFILLER_28_141 VGND VPWR VPWR VGND sky130_ef_sc_hd__decap_12
XFILLER_20_6 VGND VGND VPWR VPWR sky130_fd_sc_hd__fill_1
Xmem_top_track_16.sky130_fd_sc_hd__dfxtp_1_2_ clkbuf_3_3__f_mem_bottom_track_1.prog_clk/X
+ mux_top_track_16.mux_l2_in_1_/S VGND VGND VPWR VPWR hold29/A sky130_fd_sc_hd__dfxtp_1
Xhold43 hold43/A VGND VGND VPWR VPWR hold43/X sky130_fd_sc_hd__clkdlybuf4s25_1
Xmem_left_track_35.sky130_fd_sc_hd__dfxtp_1_0_ clkbuf_3_5__f_mem_bottom_track_1.prog_clk/X
+ hold35/X VGND VGND VPWR VPWR hold24/A sky130_fd_sc_hd__dfxtp_1
Xmux_left_track_7.mux_l1_in_2_ input76/X input74/X mux_left_track_7.mux_l1_in_3_/S
+ VGND VGND VPWR VPWR mux_left_track_7.mux_l1_in_2_/X sky130_fd_sc_hd__mux2_1
Xoutput99 _085_/X VGND VGND VPWR VPWR chanx_left_out[19] sky130_fd_sc_hd__buf_2
Xoutput88 output88/A VGND VGND VPWR VPWR ccff_tail sky130_fd_sc_hd__buf_2
XFILLER_25_122 VGND VGND VPWR VPWR sky130_fd_sc_hd__fill_1
XFILLER_25_111 VGND VGND VPWR VPWR sky130_fd_sc_hd__fill_1
XANTENNA_input23_A chanx_left_in[2] VGND VGND VPWR VPWR sky130_fd_sc_hd__diode_2
XTAP_169 VGND VPWR sky130_fd_sc_hd__tapvpwrvgnd_1
XTAP_158 VGND VPWR sky130_fd_sc_hd__tapvpwrvgnd_1
XTAP_147 VGND VPWR sky130_fd_sc_hd__tapvpwrvgnd_1
XTAP_136 VGND VPWR sky130_fd_sc_hd__tapvpwrvgnd_1
XFILLER_16_188 VGND VGND VPWR VPWR sky130_fd_sc_hd__decap_8
XTAP_125 VGND VPWR sky130_fd_sc_hd__tapvpwrvgnd_1
Xmux_top_track_0.mux_l2_in_2_ input28/X input11/X mux_top_track_0.mux_l2_in_3_/S VGND
+ VGND VPWR VPWR mux_top_track_0.mux_l2_in_2_/X sky130_fd_sc_hd__mux2_1
XTAP_114 VGND VPWR sky130_fd_sc_hd__tapvpwrvgnd_1
XTAP_103 VGND VPWR sky130_fd_sc_hd__tapvpwrvgnd_1
XFILLER_13_169 VGND VPWR VPWR VGND sky130_ef_sc_hd__decap_12
XFILLER_13_158 VGND VGND VPWR VPWR sky130_fd_sc_hd__decap_8
Xmem_bottom_track_3.sky130_fd_sc_hd__dfxtp_1_1_ clkbuf_3_0__f_mem_bottom_track_1.prog_clk/X
+ hold34/X VGND VGND VPWR VPWR mux_bottom_track_3.mux_l2_in_3_/S sky130_fd_sc_hd__dfxtp_1
XFILLER_12_191 VGND VGND VPWR VPWR sky130_fd_sc_hd__decap_4
XFILLER_8_195 VGND VGND VPWR VPWR sky130_fd_sc_hd__fill_1
XFILLER_27_217 VGND VGND VPWR VPWR sky130_fd_sc_hd__decap_6
Xmux_left_track_15.mux_l2_in_0_ input41/X mux_left_track_15.mux_l1_in_0_/X hold11/A
+ VGND VGND VPWR VPWR mux_left_track_15.mux_l2_in_0_/X sky130_fd_sc_hd__mux2_1
XFILLER_5_154 VGND VGND VPWR VPWR sky130_fd_sc_hd__decap_4
XFILLER_24_209 VGND VPWR VPWR VGND sky130_ef_sc_hd__decap_12
Xprog_clk_0_FTB00 prog_clk_0_N_in VGND VGND VPWR VPWR prog_clk_0_FTB00/X sky130_fd_sc_hd__buf_8
Xmem_bottom_track_9.sky130_fd_sc_hd__dfxtp_1_2_ clkbuf_3_2__f_mem_bottom_track_1.prog_clk/X
+ mux_bottom_track_9.mux_l2_in_3_/S VGND VGND VPWR VPWR mux_bottom_track_9.mux_l3_in_1_/S
+ sky130_fd_sc_hd__dfxtp_1
X_111_ _111_/A VGND VGND VPWR VPWR _111_/X sky130_fd_sc_hd__clkbuf_1
XANTENNA_input53_A chany_top_in[11] VGND VGND VPWR VPWR sky130_fd_sc_hd__diode_2
Xmux_left_track_7.mux_l2_in_0_ mux_left_track_7.mux_l1_in_1_/X mux_left_track_7.mux_l1_in_0_/X
+ mux_left_track_7.mux_l2_in_1_/S VGND VGND VPWR VPWR mux_left_track_7.mux_l2_in_0_/X
+ sky130_fd_sc_hd__mux2_1
XFILLER_7_216 VGND VGND VPWR VPWR sky130_fd_sc_hd__fill_2
Xmux_top_track_0.mux_l3_in_0_ mux_top_track_0.mux_l2_in_1_/X mux_top_track_0.mux_l2_in_0_/X
+ mux_top_track_0.mux_l3_in_1_/S VGND VGND VPWR VPWR mux_top_track_0.mux_l3_in_0_/X
+ sky130_fd_sc_hd__mux2_1
XFILLER_28_197 VGND VPWR VPWR VGND sky130_ef_sc_hd__decap_12
XFILLER_28_153 VGND VPWR VPWR VGND sky130_ef_sc_hd__decap_12
Xhold11 hold11/A VGND VGND VPWR VPWR hold11/X sky130_fd_sc_hd__clkdlybuf4s25_1
Xhold33 hold33/A VGND VGND VPWR VPWR hold33/X sky130_fd_sc_hd__clkdlybuf4s25_1
Xhold22 hold22/A VGND VGND VPWR VPWR hold22/X sky130_fd_sc_hd__clkdlybuf4s25_1
Xhold44 hold44/A VGND VGND VPWR VPWR hold44/X sky130_fd_sc_hd__clkdlybuf4s25_1
XFILLER_19_142 VGND VGND VPWR VPWR sky130_fd_sc_hd__fill_1
Xmem_top_track_16.sky130_fd_sc_hd__dfxtp_1_1_ clkbuf_3_3__f_mem_bottom_track_1.prog_clk/X
+ mux_top_track_16.mux_l1_in_3_/S VGND VGND VPWR VPWR mux_top_track_16.mux_l2_in_1_/S
+ sky130_fd_sc_hd__dfxtp_1
XFILLER_25_167 VGND VGND VPWR VPWR sky130_fd_sc_hd__fill_1
Xoutput89 _066_/X VGND VGND VPWR VPWR chanx_left_out[0] sky130_fd_sc_hd__buf_2
XFILLER_15_79 VGND VGND VPWR VPWR sky130_fd_sc_hd__fill_1
Xmux_left_track_7.mux_l1_in_1_ _079_/A _113_/A mux_left_track_7.mux_l1_in_3_/S VGND
+ VGND VPWR VPWR mux_left_track_7.mux_l1_in_1_/X sky130_fd_sc_hd__mux2_1
XTAP_159 VGND VPWR sky130_fd_sc_hd__tapvpwrvgnd_1
XTAP_148 VGND VPWR sky130_fd_sc_hd__tapvpwrvgnd_1
Xmux_top_track_0.mux_l2_in_1_ _119_/A mux_top_track_0.mux_l1_in_2_/X mux_top_track_0.mux_l2_in_3_/S
+ VGND VGND VPWR VPWR mux_top_track_0.mux_l2_in_1_/X sky130_fd_sc_hd__mux2_1
XTAP_137 VGND VPWR sky130_fd_sc_hd__tapvpwrvgnd_1
XFILLER_16_101 VGND VGND VPWR VPWR sky130_fd_sc_hd__fill_1
XTAP_126 VGND VPWR sky130_fd_sc_hd__tapvpwrvgnd_1
XANTENNA_input16_A chanx_left_in[14] VGND VGND VPWR VPWR sky130_fd_sc_hd__diode_2
XTAP_115 VGND VPWR sky130_fd_sc_hd__tapvpwrvgnd_1
XTAP_104 VGND VPWR sky130_fd_sc_hd__tapvpwrvgnd_1
Xrepeater150 repeater150/A VGND VGND VPWR VPWR repeater150/X sky130_fd_sc_hd__clkbuf_2
XANTENNA_mux_left_track_1.mux_l1_in_1__A0 input71/X VGND VGND VPWR VPWR sky130_fd_sc_hd__diode_2
XANTENNA_input8_A bottom_left_grid_pin_49_ VGND VGND VPWR VPWR sky130_fd_sc_hd__diode_2
Xmem_bottom_track_3.sky130_fd_sc_hd__dfxtp_1_0_ clkbuf_3_2__f_mem_bottom_track_1.prog_clk/X
+ hold30/X VGND VGND VPWR VPWR hold34/A sky130_fd_sc_hd__dfxtp_1
XFILLER_21_181 VGND VPWR VPWR VGND sky130_ef_sc_hd__decap_12
XFILLER_3_49 VGND VGND VPWR VPWR sky130_fd_sc_hd__fill_1
XANTENNA_input83_A top_left_grid_pin_46_ VGND VGND VPWR VPWR sky130_fd_sc_hd__diode_2
Xmux_top_track_0.mux_l1_in_2_ _109_/A input87/X mux_top_track_0.mux_l1_in_2_/S VGND
+ VGND VPWR VPWR mux_top_track_0.mux_l1_in_2_/X sky130_fd_sc_hd__mux2_1
XFILLER_5_100 VGND VGND VPWR VPWR sky130_fd_sc_hd__fill_1
Xmux_top_track_16.sky130_fd_sc_hd__buf_4_0_ mux_top_track_16.mux_l3_in_0_/X VGND VGND
+ VPWR VPWR _114_/A sky130_fd_sc_hd__clkbuf_1
Xmem_bottom_track_9.sky130_fd_sc_hd__dfxtp_1_1_ clkbuf_3_2__f_mem_bottom_track_1.prog_clk/X
+ hold25/X VGND VGND VPWR VPWR mux_bottom_track_9.mux_l2_in_3_/S sky130_fd_sc_hd__dfxtp_1
XFILLER_14_221 VGND VGND VPWR VPWR sky130_fd_sc_hd__fill_2
Xmux_left_track_15.mux_l1_in_0_ _119_/A _099_/A hold45/A VGND VGND VPWR VPWR mux_left_track_15.mux_l1_in_0_/X
+ sky130_fd_sc_hd__mux2_1
XFILLER_18_68 VGND VGND VPWR VPWR sky130_fd_sc_hd__decap_4
X_110_ _110_/A VGND VGND VPWR VPWR _110_/X sky130_fd_sc_hd__clkbuf_1
XANTENNA_input46_A chany_bottom_in[5] VGND VGND VPWR VPWR sky130_fd_sc_hd__diode_2
XFILLER_28_165 VGND VPWR VPWR VGND sky130_ef_sc_hd__decap_12
Xhold45 hold45/A VGND VGND VPWR VPWR hold45/X sky130_fd_sc_hd__clkdlybuf4s25_1
Xhold12 hold12/A VGND VGND VPWR VPWR hold12/X sky130_fd_sc_hd__clkdlybuf4s25_1
Xhold23 hold23/A VGND VGND VPWR VPWR hold23/X sky130_fd_sc_hd__clkdlybuf4s25_1
Xhold34 hold34/A VGND VGND VPWR VPWR hold34/X sky130_fd_sc_hd__clkdlybuf4s25_1
XFILLER_4_209 VGND VPWR VPWR VGND sky130_ef_sc_hd__decap_12
Xmem_top_track_16.sky130_fd_sc_hd__dfxtp_1_0_ clkbuf_3_3__f_mem_bottom_track_1.prog_clk/X
+ hold4/X VGND VGND VPWR VPWR mux_top_track_16.mux_l1_in_3_/S sky130_fd_sc_hd__dfxtp_1
XFILLER_6_27 VGND VGND VPWR VPWR sky130_fd_sc_hd__fill_1
Xmux_bottom_track_9.mux_l2_in_3_ mux_bottom_track_9.mux_l2_in_3_/A0 input20/X mux_bottom_track_9.mux_l2_in_3_/S
+ VGND VGND VPWR VPWR mux_bottom_track_9.mux_l2_in_3_/X sky130_fd_sc_hd__mux2_1
XFILLER_33_190 VGND VGND VPWR VPWR sky130_fd_sc_hd__fill_1
Xmux_top_track_0.sky130_fd_sc_hd__buf_4_0_ mux_top_track_0.mux_l4_in_0_/X VGND VGND
+ VPWR VPWR _106_/A sky130_fd_sc_hd__clkbuf_1
Xmux_left_track_7.mux_l1_in_0_ input44/X _093_/A mux_left_track_7.mux_l1_in_3_/S VGND
+ VGND VPWR VPWR mux_left_track_7.mux_l1_in_0_/X sky130_fd_sc_hd__mux2_1
XTAP_149 VGND VPWR sky130_fd_sc_hd__tapvpwrvgnd_1
Xmux_top_track_0.mux_l2_in_0_ mux_top_track_0.mux_l1_in_1_/X mux_top_track_0.mux_l1_in_0_/X
+ mux_top_track_0.mux_l2_in_3_/S VGND VGND VPWR VPWR mux_top_track_0.mux_l2_in_0_/X
+ sky130_fd_sc_hd__mux2_1
XTAP_138 VGND VPWR sky130_fd_sc_hd__tapvpwrvgnd_1
XTAP_127 VGND VPWR sky130_fd_sc_hd__tapvpwrvgnd_1
XTAP_116 VGND VPWR sky130_fd_sc_hd__tapvpwrvgnd_1
XTAP_105 VGND VPWR sky130_fd_sc_hd__tapvpwrvgnd_1
XANTENNA_mux_left_track_1.mux_l1_in_1__A1 _109_/A VGND VGND VPWR VPWR sky130_fd_sc_hd__diode_2
Xrepeater151 repeater152/X VGND VGND VPWR VPWR repeater151/X sky130_fd_sc_hd__clkbuf_2
XFILLER_21_193 VGND VPWR VPWR VGND sky130_ef_sc_hd__decap_12
XFILLER_8_197 VGND VPWR VPWR VGND sky130_ef_sc_hd__decap_12
Xmux_top_track_0.mux_l1_in_1_ input85/X input83/X mux_top_track_0.mux_l1_in_2_/S VGND
+ VGND VPWR VPWR mux_top_track_0.mux_l1_in_1_/X sky130_fd_sc_hd__mux2_1
Xmux_bottom_track_9.mux_l4_in_0_ mux_bottom_track_9.mux_l3_in_1_/X mux_bottom_track_9.mux_l3_in_0_/X
+ hold38/A VGND VGND VPWR VPWR mux_bottom_track_9.mux_l4_in_0_/X sky130_fd_sc_hd__mux2_1
XFILLER_32_200 VGND VGND VPWR VPWR sky130_fd_sc_hd__fill_1
Xmem_left_track_21.sky130_fd_sc_hd__dfxtp_1_1_ clkbuf_3_5__f_mem_bottom_track_1.prog_clk/X
+ mux_left_track_21.mux_l1_in_1_/S VGND VGND VPWR VPWR hold10/A sky130_fd_sc_hd__dfxtp_1
Xmux_left_track_39.mux_l2_in_0__164 VGND VGND VPWR VPWR mux_left_track_39.mux_l2_in_0_/A0
+ mux_left_track_39.mux_l2_in_0__164/LO sky130_fd_sc_hd__conb_1
XANTENNA_mux_bottom_track_17.mux_l1_in_0__A0 _104_/A VGND VGND VPWR VPWR sky130_fd_sc_hd__diode_2
XANTENNA_input76_A left_bottom_grid_pin_39_ VGND VGND VPWR VPWR sky130_fd_sc_hd__diode_2
XANTENNA__091__A _091_/A VGND VGND VPWR VPWR sky130_fd_sc_hd__diode_2
XFILLER_0_29 VGND VGND VPWR VPWR sky130_fd_sc_hd__fill_1
Xmem_bottom_track_9.sky130_fd_sc_hd__dfxtp_1_0_ clkbuf_3_2__f_mem_bottom_track_1.prog_clk/X
+ hold15/X VGND VGND VPWR VPWR hold25/A sky130_fd_sc_hd__dfxtp_1
Xmux_bottom_track_9.mux_l3_in_1_ mux_bottom_track_9.mux_l2_in_3_/X mux_bottom_track_9.mux_l2_in_2_/X
+ mux_bottom_track_9.mux_l3_in_1_/S VGND VGND VPWR VPWR mux_bottom_track_9.mux_l3_in_1_/X
+ sky130_fd_sc_hd__mux2_1
Xmem_bottom_track_17.sky130_fd_sc_hd__dfxtp_1_2_ clkbuf_3_3__f_mem_bottom_track_1.prog_clk/X
+ mux_bottom_track_17.mux_l2_in_1_/S VGND VGND VPWR VPWR hold14/A sky130_fd_sc_hd__dfxtp_1
XANTENNA_input39_A chany_bottom_in[17] VGND VGND VPWR VPWR sky130_fd_sc_hd__diode_2
Xhold24 hold24/A VGND VGND VPWR VPWR hold24/X sky130_fd_sc_hd__clkdlybuf4s25_1
Xhold35 hold35/A VGND VGND VPWR VPWR hold35/X sky130_fd_sc_hd__clkdlybuf4s25_1
XFILLER_28_177 VGND VPWR VPWR VGND sky130_ef_sc_hd__decap_12
Xhold13 hold13/A VGND VGND VPWR VPWR hold13/X sky130_fd_sc_hd__clkdlybuf4s25_1
Xhold46 hold46/A VGND VGND VPWR VPWR hold46/X sky130_fd_sc_hd__clkdlybuf4s25_1
Xmux_bottom_track_9.mux_l2_in_2_ input13/X input25/X mux_bottom_track_9.mux_l2_in_3_/S
+ VGND VGND VPWR VPWR mux_bottom_track_9.mux_l2_in_2_/X sky130_fd_sc_hd__mux2_1
XFILLER_25_169 VGND VPWR VPWR VGND sky130_ef_sc_hd__decap_12
Xmux_left_track_39.mux_l2_in_0_ mux_left_track_39.mux_l2_in_0_/A0 mux_left_track_39.mux_l1_in_0_/X
+ output88/A VGND VGND VPWR VPWR mux_left_track_39.mux_l2_in_0_/X sky130_fd_sc_hd__mux2_1
XFILLER_22_128 VGND VGND VPWR VPWR sky130_fd_sc_hd__fill_1
XTAP_139 VGND VPWR sky130_fd_sc_hd__tapvpwrvgnd_1
XTAP_128 VGND VPWR sky130_fd_sc_hd__tapvpwrvgnd_1
XTAP_117 VGND VPWR sky130_fd_sc_hd__tapvpwrvgnd_1
XTAP_106 VGND VPWR sky130_fd_sc_hd__tapvpwrvgnd_1
XPHY_0 VGND VGND VPWR VPWR sky130_fd_sc_hd__decap_3
XFILLER_7_60 VGND VGND VPWR VPWR sky130_fd_sc_hd__fill_1
Xrepeater152 repeater152/A VGND VGND VPWR VPWR repeater152/X sky130_fd_sc_hd__clkbuf_2
XANTENNA_mux_bottom_track_25.mux_l1_in_0__A0 _105_/A VGND VGND VPWR VPWR sky130_fd_sc_hd__diode_2
Xmux_bottom_track_33.sky130_fd_sc_hd__buf_4_0_ mux_bottom_track_33.mux_l3_in_0_/X
+ VGND VGND VPWR VPWR _102_/A sky130_fd_sc_hd__clkbuf_1
XANTENNA_input21_A chanx_left_in[19] VGND VGND VPWR VPWR sky130_fd_sc_hd__diode_2
XFILLER_8_165 VGND VPWR VPWR VGND sky130_ef_sc_hd__decap_12
Xmux_bottom_track_25.mux_l3_in_0_ mux_bottom_track_25.mux_l2_in_1_/X mux_bottom_track_25.mux_l2_in_0_/X
+ hold40/A VGND VGND VPWR VPWR mux_bottom_track_25.mux_l3_in_0_/X sky130_fd_sc_hd__mux2_1
XANTENNA_mux_left_track_15.mux_l1_in_0__A0 _119_/A VGND VGND VPWR VPWR sky130_fd_sc_hd__diode_2
XFILLER_18_209 VGND VPWR VPWR VGND sky130_ef_sc_hd__decap_12
XANTENNA__089__A _089_/A VGND VGND VPWR VPWR sky130_fd_sc_hd__diode_2
XANTENNA_input69_A chany_top_in[8] VGND VGND VPWR VPWR sky130_fd_sc_hd__diode_2
XFILLER_32_212 VGND VGND VPWR VPWR sky130_fd_sc_hd__fill_1
Xmem_left_track_21.sky130_fd_sc_hd__dfxtp_1_0_ clkbuf_3_5__f_mem_bottom_track_1.prog_clk/X
+ hold26/X VGND VGND VPWR VPWR mux_left_track_21.mux_l1_in_1_/S sky130_fd_sc_hd__dfxtp_1
Xmux_top_track_0.mux_l1_in_0_ input81/X input79/X mux_top_track_0.mux_l1_in_2_/S VGND
+ VGND VPWR VPWR mux_top_track_0.mux_l1_in_0_/X sky130_fd_sc_hd__mux2_1
XANTENNA_mux_bottom_track_17.mux_l1_in_0__A1 _095_/A VGND VGND VPWR VPWR sky130_fd_sc_hd__diode_2
XFILLER_13_81 VGND VGND VPWR VPWR sky130_fd_sc_hd__fill_1
Xmux_bottom_track_25.mux_l2_in_1_ mux_bottom_track_25.mux_l2_in_1_/A0 mux_bottom_track_25.mux_l1_in_2_/X
+ mux_bottom_track_25.mux_l2_in_1_/S VGND VGND VPWR VPWR mux_bottom_track_25.mux_l2_in_1_/X
+ sky130_fd_sc_hd__mux2_1
Xmux_bottom_track_9.mux_l3_in_0_ mux_bottom_track_9.mux_l2_in_1_/X mux_bottom_track_9.mux_l2_in_0_/X
+ mux_bottom_track_9.mux_l3_in_1_/S VGND VGND VPWR VPWR mux_bottom_track_9.mux_l3_in_0_/X
+ sky130_fd_sc_hd__mux2_1
Xmem_bottom_track_17.sky130_fd_sc_hd__dfxtp_1_1_ clkbuf_3_3__f_mem_bottom_track_1.prog_clk/X
+ mux_bottom_track_17.mux_l1_in_3_/S VGND VGND VPWR VPWR mux_bottom_track_17.mux_l2_in_1_/S
+ sky130_fd_sc_hd__dfxtp_1
X_099_ _099_/A VGND VGND VPWR VPWR _099_/X sky130_fd_sc_hd__clkbuf_1
Xhold47 hold47/A VGND VGND VPWR VPWR hold47/X sky130_fd_sc_hd__clkdlybuf4s25_1
Xhold36 hold36/A VGND VGND VPWR VPWR hold36/X sky130_fd_sc_hd__clkdlybuf4s25_1
XANTENNA_mux_top_track_4.mux_l1_in_2__A1 input83/X VGND VGND VPWR VPWR sky130_fd_sc_hd__diode_2
XFILLER_20_27 VGND VGND VPWR VPWR sky130_fd_sc_hd__fill_1
XANTENNA_mux_left_track_3.mux_l1_in_2__A0 input76/X VGND VGND VPWR VPWR sky130_fd_sc_hd__diode_2
Xhold14 hold14/A VGND VGND VPWR VPWR hold14/X sky130_fd_sc_hd__clkdlybuf4s25_1
Xhold25 hold25/A VGND VGND VPWR VPWR hold25/X sky130_fd_sc_hd__clkdlybuf4s25_1
XANTENNA_input51_A chany_top_in[0] VGND VGND VPWR VPWR sky130_fd_sc_hd__diode_2
XFILLER_28_189 VGND VGND VPWR VPWR sky130_fd_sc_hd__decap_6
XFILLER_19_167 VGND VGND VPWR VPWR sky130_fd_sc_hd__fill_1
Xmux_bottom_track_25.mux_l1_in_2_ input15/X input27/X mux_bottom_track_25.mux_l1_in_2_/S
+ VGND VGND VPWR VPWR mux_bottom_track_25.mux_l1_in_2_/X sky130_fd_sc_hd__mux2_1
XANTENNA__097__A _097_/A VGND VGND VPWR VPWR sky130_fd_sc_hd__diode_2
Xmux_bottom_track_9.mux_l2_in_1_ input8/X input4/X mux_bottom_track_9.mux_l2_in_3_/S
+ VGND VGND VPWR VPWR mux_bottom_track_9.mux_l2_in_1_/X sky130_fd_sc_hd__mux2_1
XFILLER_0_214 VGND VGND VPWR VPWR sky130_fd_sc_hd__fill_1
XFILLER_30_195 VGND VGND VPWR VPWR sky130_fd_sc_hd__fill_1
XFILLER_30_151 VGND VPWR VPWR VGND sky130_ef_sc_hd__decap_12
XANTENNA_mux_left_track_23.mux_l1_in_0__A0 _124_/A VGND VGND VPWR VPWR sky130_fd_sc_hd__diode_2