* NGSPICE file created from sb_2__2_.ext - technology: sky130A

* Black-box entry subcircuit for sky130_fd_sc_hd__tapvpwrvgnd_1 abstract view
.subckt sky130_fd_sc_hd__tapvpwrvgnd_1 VGND VPWR
.ends

* Black-box entry subcircuit for sky130_ef_sc_hd__decap_12 abstract view
.subckt sky130_ef_sc_hd__decap_12 VGND VPWR VPB VNB
.ends

* Black-box entry subcircuit for sky130_fd_sc_hd__fill_2 abstract view
.subckt sky130_fd_sc_hd__fill_2 VGND VNB VPB VPWR
.ends

* Black-box entry subcircuit for sky130_fd_sc_hd__mux2_1 abstract view
.subckt sky130_fd_sc_hd__mux2_1 A0 A1 S VGND VNB VPB VPWR X
.ends

* Black-box entry subcircuit for sky130_fd_sc_hd__dfxtp_1 abstract view
.subckt sky130_fd_sc_hd__dfxtp_1 CLK D VGND VNB VPB VPWR Q
.ends

* Black-box entry subcircuit for sky130_fd_sc_hd__decap_4 abstract view
.subckt sky130_fd_sc_hd__decap_4 VGND VNB VPB VPWR
.ends

* Black-box entry subcircuit for sky130_fd_sc_hd__diode_2 abstract view
.subckt sky130_fd_sc_hd__diode_2 DIODE VGND VNB VPB VPWR
.ends

* Black-box entry subcircuit for sky130_fd_sc_hd__decap_3 abstract view
.subckt sky130_fd_sc_hd__decap_3 VGND VNB VPB VPWR
.ends

* Black-box entry subcircuit for sky130_fd_sc_hd__fill_1 abstract view
.subckt sky130_fd_sc_hd__fill_1 VGND VNB VPB VPWR
.ends

* Black-box entry subcircuit for sky130_fd_sc_hd__conb_1 abstract view
.subckt sky130_fd_sc_hd__conb_1 VGND VNB VPB VPWR HI LO
.ends

* Black-box entry subcircuit for sky130_fd_sc_hd__clkdlybuf4s25_1 abstract view
.subckt sky130_fd_sc_hd__clkdlybuf4s25_1 A VGND VNB VPB VPWR X
.ends

* Black-box entry subcircuit for sky130_fd_sc_hd__buf_2 abstract view
.subckt sky130_fd_sc_hd__buf_2 A VGND VNB VPB VPWR X
.ends

* Black-box entry subcircuit for sky130_fd_sc_hd__clkbuf_1 abstract view
.subckt sky130_fd_sc_hd__clkbuf_1 A VGND VNB VPB VPWR X
.ends

* Black-box entry subcircuit for sky130_fd_sc_hd__decap_6 abstract view
.subckt sky130_fd_sc_hd__decap_6 VGND VNB VPB VPWR
.ends

* Black-box entry subcircuit for sky130_fd_sc_hd__decap_8 abstract view
.subckt sky130_fd_sc_hd__decap_8 VGND VNB VPB VPWR
.ends

* Black-box entry subcircuit for sky130_fd_sc_hd__buf_8 abstract view
.subckt sky130_fd_sc_hd__buf_8 A VGND VNB VPB VPWR X
.ends

* Black-box entry subcircuit for sky130_fd_sc_hd__dlymetal6s2s_1 abstract view
.subckt sky130_fd_sc_hd__dlymetal6s2s_1 A VGND VNB VPB VPWR X
.ends

* Black-box entry subcircuit for sky130_fd_sc_hd__clkbuf_2 abstract view
.subckt sky130_fd_sc_hd__clkbuf_2 A VGND VNB VPB VPWR X
.ends

* Black-box entry subcircuit for sky130_fd_sc_hd__clkbuf_16 abstract view
.subckt sky130_fd_sc_hd__clkbuf_16 A VGND VNB VPB VPWR X
.ends

.subckt sb_2__2_ SC_IN_BOT SC_OUT_BOT VGND VPWR bottom_left_grid_pin_42_ bottom_left_grid_pin_43_
+ bottom_left_grid_pin_44_ bottom_left_grid_pin_45_ bottom_left_grid_pin_46_ bottom_left_grid_pin_47_
+ bottom_left_grid_pin_48_ bottom_left_grid_pin_49_ bottom_right_grid_pin_1_ ccff_head
+ ccff_tail chanx_left_in[0] chanx_left_in[10] chanx_left_in[11] chanx_left_in[12]
+ chanx_left_in[13] chanx_left_in[14] chanx_left_in[15] chanx_left_in[16] chanx_left_in[17]
+ chanx_left_in[18] chanx_left_in[19] chanx_left_in[1] chanx_left_in[2] chanx_left_in[3]
+ chanx_left_in[4] chanx_left_in[5] chanx_left_in[6] chanx_left_in[7] chanx_left_in[8]
+ chanx_left_in[9] chanx_left_out[0] chanx_left_out[10] chanx_left_out[11] chanx_left_out[12]
+ chanx_left_out[13] chanx_left_out[14] chanx_left_out[15] chanx_left_out[16] chanx_left_out[17]
+ chanx_left_out[18] chanx_left_out[19] chanx_left_out[1] chanx_left_out[2] chanx_left_out[3]
+ chanx_left_out[4] chanx_left_out[5] chanx_left_out[6] chanx_left_out[7] chanx_left_out[8]
+ chanx_left_out[9] chany_bottom_in[0] chany_bottom_in[10] chany_bottom_in[11] chany_bottom_in[12]
+ chany_bottom_in[13] chany_bottom_in[14] chany_bottom_in[15] chany_bottom_in[16]
+ chany_bottom_in[17] chany_bottom_in[18] chany_bottom_in[19] chany_bottom_in[1] chany_bottom_in[2]
+ chany_bottom_in[3] chany_bottom_in[4] chany_bottom_in[5] chany_bottom_in[6] chany_bottom_in[7]
+ chany_bottom_in[8] chany_bottom_in[9] chany_bottom_out[0] chany_bottom_out[10] chany_bottom_out[11]
+ chany_bottom_out[12] chany_bottom_out[13] chany_bottom_out[14] chany_bottom_out[15]
+ chany_bottom_out[16] chany_bottom_out[17] chany_bottom_out[18] chany_bottom_out[19]
+ chany_bottom_out[1] chany_bottom_out[2] chany_bottom_out[3] chany_bottom_out[4]
+ chany_bottom_out[5] chany_bottom_out[6] chany_bottom_out[7] chany_bottom_out[8]
+ chany_bottom_out[9] left_bottom_grid_pin_34_ left_bottom_grid_pin_35_ left_bottom_grid_pin_36_
+ left_bottom_grid_pin_37_ left_bottom_grid_pin_38_ left_bottom_grid_pin_39_ left_bottom_grid_pin_40_
+ left_bottom_grid_pin_41_ left_top_grid_pin_1_ prog_clk_0_S_in
XTAP_188 VGND VPWR sky130_fd_sc_hd__tapvpwrvgnd_1
XTAP_177 VGND VPWR sky130_fd_sc_hd__tapvpwrvgnd_1
XFILLER_22_177 VGND VPWR VPWR VGND sky130_ef_sc_hd__decap_12
XFILLER_7_7 VGND VGND VPWR VPWR sky130_fd_sc_hd__fill_2
XFILLER_9_159 VGND VGND VPWR VPWR sky130_fd_sc_hd__fill_2
XFILLER_13_155 VGND VGND VPWR VPWR sky130_fd_sc_hd__fill_2
Xmux_bottom_track_3.mux_l1_in_1_ input8/X input6/X mux_bottom_track_3.mux_l1_in_1_/S
+ VGND VGND VPWR VPWR mux_bottom_track_3.mux_l1_in_1_/X sky130_fd_sc_hd__mux2_1
Xmem_left_track_17.sky130_fd_sc_hd__dfxtp_1_0_ clkbuf_3_2__f_mem_bottom_track_1.prog_clk/X
+ hold46/X VGND VGND VPWR VPWR hold33/A sky130_fd_sc_hd__dfxtp_1
XFILLER_10_136 VGND VGND VPWR VPWR sky130_fd_sc_hd__decap_4
XANTENNA_mux_left_track_35.mux_l1_in_0__A1 input39/X VGND VGND VPWR VPWR sky130_fd_sc_hd__diode_2
XFILLER_30_209 VGND VPWR VPWR VGND sky130_ef_sc_hd__decap_12
XFILLER_23_64 VGND VGND VPWR VPWR sky130_fd_sc_hd__fill_2
XFILLER_23_75 VGND VGND VPWR VPWR sky130_fd_sc_hd__fill_2
XFILLER_2_121 VGND VGND VPWR VPWR sky130_fd_sc_hd__decap_4
XANTENNA_input55_A left_bottom_grid_pin_37_ VGND VGND VPWR VPWR sky130_fd_sc_hd__diode_2
XFILLER_0_13 VGND VGND VPWR VPWR sky130_fd_sc_hd__fill_2
XFILLER_0_57 VGND VGND VPWR VPWR sky130_fd_sc_hd__decap_3
XFILLER_9_66 VGND VGND VPWR VPWR sky130_fd_sc_hd__fill_2
XFILLER_12_209 VGND VPWR VPWR VGND sky130_ef_sc_hd__decap_12
XFILLER_18_20 VGND VGND VPWR VPWR sky130_fd_sc_hd__fill_2
XFILLER_22_7 VGND VGND VPWR VPWR sky130_fd_sc_hd__fill_2
Xmux_bottom_track_17.mux_l1_in_0_ input31/X input5/X hold13/A VGND VGND VPWR VPWR
+ mux_bottom_track_17.mux_l1_in_0_/X sky130_fd_sc_hd__mux2_1
XFILLER_29_106 VGND VGND VPWR VPWR sky130_fd_sc_hd__fill_1
XFILLER_29_128 VGND VPWR VPWR VGND sky130_ef_sc_hd__decap_12
Xmux_bottom_track_7.mux_l2_in_1__105 VGND VGND VPWR VPWR mux_bottom_track_7.mux_l2_in_1_/A0
+ mux_bottom_track_7.mux_l2_in_1__105/LO sky130_fd_sc_hd__conb_1
XFILLER_20_65 VGND VGND VPWR VPWR sky130_fd_sc_hd__fill_2
Xhold41 hold41/A VGND VGND VPWR VPWR hold41/X sky130_fd_sc_hd__clkdlybuf4s25_1
Xhold30 hold30/A VGND VGND VPWR VPWR hold30/X sky130_fd_sc_hd__clkdlybuf4s25_1
Xhold52 hold52/A VGND VGND VPWR VPWR hold52/X sky130_fd_sc_hd__clkdlybuf4s25_1
Xmux_bottom_track_29.mux_l2_in_0_ mux_bottom_track_29.mux_l2_in_0_/A0 mux_bottom_track_29.mux_l1_in_0_/X
+ hold11/A VGND VGND VPWR VPWR mux_bottom_track_29.mux_l2_in_0_/X sky130_fd_sc_hd__mux2_1
XANTENNA_input18_A chanx_left_in[15] VGND VGND VPWR VPWR sky130_fd_sc_hd__diode_2
XFILLER_13_3 VGND VGND VPWR VPWR sky130_fd_sc_hd__fill_1
Xoutput75 _073_/X VGND VGND VPWR VPWR chanx_left_out[2] sky130_fd_sc_hd__buf_2
Xoutput64 _081_/X VGND VGND VPWR VPWR chanx_left_out[10] sky130_fd_sc_hd__buf_2
Xoutput97 _095_/X VGND VGND VPWR VPWR chany_bottom_out[4] sky130_fd_sc_hd__buf_2
Xoutput86 _103_/X VGND VGND VPWR VPWR chany_bottom_out[12] sky130_fd_sc_hd__buf_2
Xmux_bottom_track_3.sky130_fd_sc_hd__buf_4_0_ mux_bottom_track_3.mux_l3_in_0_/X VGND
+ VGND VPWR VPWR _092_/A sky130_fd_sc_hd__clkbuf_1
XFILLER_16_175 VGND VPWR VPWR VGND sky130_ef_sc_hd__decap_12
XFILLER_31_167 VGND VGND VPWR VPWR sky130_fd_sc_hd__fill_1
XTAP_189 VGND VPWR sky130_fd_sc_hd__tapvpwrvgnd_1
XTAP_101 VGND VPWR sky130_fd_sc_hd__tapvpwrvgnd_1
XTAP_112 VGND VPWR sky130_fd_sc_hd__tapvpwrvgnd_1
XTAP_123 VGND VPWR sky130_fd_sc_hd__tapvpwrvgnd_1
XTAP_134 VGND VPWR sky130_fd_sc_hd__tapvpwrvgnd_1
XTAP_145 VGND VPWR sky130_fd_sc_hd__tapvpwrvgnd_1
XTAP_156 VGND VPWR sky130_fd_sc_hd__tapvpwrvgnd_1
XTAP_167 VGND VPWR sky130_fd_sc_hd__tapvpwrvgnd_1
XTAP_178 VGND VPWR sky130_fd_sc_hd__tapvpwrvgnd_1
XFILLER_22_189 VGND VGND VPWR VPWR sky130_fd_sc_hd__decap_6
XFILLER_3_57 VGND VGND VPWR VPWR sky130_fd_sc_hd__decap_3
XFILLER_3_13 VGND VGND VPWR VPWR sky130_fd_sc_hd__fill_2
Xmux_bottom_track_3.mux_l1_in_0_ input4/X input2/X mux_bottom_track_3.mux_l1_in_1_/S
+ VGND VGND VPWR VPWR mux_bottom_track_3.mux_l1_in_0_/X sky130_fd_sc_hd__mux2_1
XFILLER_10_126 VGND VGND VPWR VPWR sky130_fd_sc_hd__fill_2
XFILLER_12_22 VGND VGND VPWR VPWR sky130_fd_sc_hd__fill_1
XFILLER_12_88 VGND VGND VPWR VPWR sky130_fd_sc_hd__decap_4
XFILLER_23_54 VGND VGND VPWR VPWR sky130_fd_sc_hd__fill_2
XFILLER_2_199 VGND VGND VPWR VPWR sky130_fd_sc_hd__fill_2
XANTENNA_input48_A chany_bottom_in[6] VGND VGND VPWR VPWR sky130_fd_sc_hd__diode_2
XFILLER_0_25 VGND VGND VPWR VPWR sky130_fd_sc_hd__decap_3
XFILLER_0_69 VGND VGND VPWR VPWR sky130_fd_sc_hd__decap_4
XFILLER_9_23 VGND VGND VPWR VPWR sky130_fd_sc_hd__fill_2
XFILLER_9_89 VGND VGND VPWR VPWR sky130_fd_sc_hd__fill_2
XFILLER_20_221 VGND VGND VPWR VPWR sky130_fd_sc_hd__fill_2
Xmux_left_track_9.sky130_fd_sc_hd__buf_4_0_ mux_left_track_9.mux_l2_in_0_/X VGND VGND
+ VPWR VPWR _075_/A sky130_fd_sc_hd__clkbuf_1
XFILLER_18_76 VGND VGND VPWR VPWR sky130_fd_sc_hd__decap_3
XFILLER_18_87 VGND VGND VPWR VPWR sky130_fd_sc_hd__fill_2
XFILLER_7_203 VGND VGND VPWR VPWR sky130_fd_sc_hd__fill_2
Xmem_bottom_track_25.sky130_fd_sc_hd__dfxtp_1_1_ clkbuf_3_7__f_mem_bottom_track_1.prog_clk/X
+ mux_bottom_track_25.mux_l1_in_1_/S VGND VGND VPWR VPWR hold49/A sky130_fd_sc_hd__dfxtp_1
Xmux_left_track_31.sky130_fd_sc_hd__buf_4_0_ mux_left_track_31.mux_l2_in_0_/X VGND
+ VGND VPWR VPWR _086_/A sky130_fd_sc_hd__clkbuf_1
Xhold20 hold20/A VGND VGND VPWR VPWR hold20/X sky130_fd_sc_hd__clkdlybuf4s25_1
Xhold42 hold42/A VGND VGND VPWR VPWR hold42/X sky130_fd_sc_hd__clkdlybuf4s25_1
Xhold53 hold53/A VGND VGND VPWR VPWR hold53/X sky130_fd_sc_hd__clkdlybuf4s25_1
Xhold31 hold31/A VGND VGND VPWR VPWR hold31/X sky130_fd_sc_hd__clkdlybuf4s25_1
XFILLER_29_42 VGND VGND VPWR VPWR sky130_fd_sc_hd__decap_4
XFILLER_28_195 VGND VGND VPWR VPWR sky130_fd_sc_hd__fill_1
Xmem_left_track_35.sky130_fd_sc_hd__dfxtp_1_1_ clkbuf_3_3__f_mem_bottom_track_1.prog_clk/X
+ hold28/X VGND VGND VPWR VPWR hold4/A sky130_fd_sc_hd__dfxtp_1
XFILLER_15_22 VGND VGND VPWR VPWR sky130_fd_sc_hd__fill_2
XFILLER_25_110 VGND VGND VPWR VPWR sky130_fd_sc_hd__fill_2
XFILLER_15_99 VGND VGND VPWR VPWR sky130_fd_sc_hd__fill_2
Xoutput87 _104_/X VGND VGND VPWR VPWR chany_bottom_out[13] sky130_fd_sc_hd__buf_2
Xoutput98 _096_/X VGND VGND VPWR VPWR chany_bottom_out[5] sky130_fd_sc_hd__buf_2
Xoutput76 _074_/X VGND VGND VPWR VPWR chanx_left_out[3] sky130_fd_sc_hd__buf_2
Xoutput65 _082_/X VGND VGND VPWR VPWR chanx_left_out[11] sky130_fd_sc_hd__buf_2
XANTENNA_input30_A chanx_left_in[8] VGND VGND VPWR VPWR sky130_fd_sc_hd__diode_2
XFILLER_16_143 VGND VGND VPWR VPWR sky130_fd_sc_hd__fill_2
XFILLER_16_187 VGND VGND VPWR VPWR sky130_fd_sc_hd__decap_8
XFILLER_31_113 VGND VPWR VPWR VGND sky130_ef_sc_hd__decap_12
XTAP_102 VGND VPWR sky130_fd_sc_hd__tapvpwrvgnd_1
XTAP_113 VGND VPWR sky130_fd_sc_hd__tapvpwrvgnd_1
XTAP_124 VGND VPWR sky130_fd_sc_hd__tapvpwrvgnd_1
XTAP_135 VGND VPWR sky130_fd_sc_hd__tapvpwrvgnd_1
XTAP_146 VGND VPWR sky130_fd_sc_hd__tapvpwrvgnd_1
XTAP_157 VGND VPWR sky130_fd_sc_hd__tapvpwrvgnd_1
XTAP_168 VGND VPWR sky130_fd_sc_hd__tapvpwrvgnd_1
Xmux_left_track_25.sky130_fd_sc_hd__buf_4_0_ mux_left_track_25.mux_l2_in_0_/X VGND
+ VGND VPWR VPWR _083_/A sky130_fd_sc_hd__clkbuf_1
XTAP_179 VGND VPWR sky130_fd_sc_hd__tapvpwrvgnd_1
Xmem_bottom_track_3.sky130_fd_sc_hd__dfxtp_1_2_ clkbuf_3_0__f_mem_bottom_track_1.prog_clk/X
+ mux_bottom_track_3.mux_l2_in_1_/S VGND VGND VPWR VPWR hold32/A sky130_fd_sc_hd__dfxtp_1
Xmux_bottom_track_29.mux_l1_in_0_ input18/X input3/X hold18/A VGND VGND VPWR VPWR
+ mux_bottom_track_29.mux_l1_in_0_/X sky130_fd_sc_hd__mux2_1
XFILLER_26_43 VGND VGND VPWR VPWR sky130_fd_sc_hd__fill_2
XFILLER_26_98 VGND VGND VPWR VPWR sky130_fd_sc_hd__fill_2
XFILLER_3_69 VGND VGND VPWR VPWR sky130_fd_sc_hd__fill_2
XFILLER_3_25 VGND VGND VPWR VPWR sky130_fd_sc_hd__decap_4
XFILLER_8_194 VGND VGND VPWR VPWR sky130_fd_sc_hd__fill_2
XFILLER_27_205 VGND VPWR VPWR VGND sky130_ef_sc_hd__decap_12
XFILLER_18_205 VGND VPWR VPWR VGND sky130_ef_sc_hd__decap_12
Xmux_left_track_19.sky130_fd_sc_hd__buf_4_0_ mux_left_track_19.mux_l2_in_0_/X VGND
+ VGND VPWR VPWR _080_/A sky130_fd_sc_hd__clkbuf_1
Xmux_left_track_7.mux_l3_in_0_ mux_left_track_7.mux_l2_in_1_/X mux_left_track_7.mux_l2_in_0_/X
+ hold38/A VGND VGND VPWR VPWR mux_left_track_7.mux_l3_in_0_/X sky130_fd_sc_hd__mux2_1
XFILLER_23_11 VGND VGND VPWR VPWR sky130_fd_sc_hd__fill_2
XFILLER_2_134 VGND VGND VPWR VPWR sky130_fd_sc_hd__fill_2
Xmux_left_track_7.mux_l2_in_1_ mux_left_track_7.mux_l2_in_1_/A0 input58/X mux_left_track_7.mux_l2_in_1_/S
+ VGND VGND VPWR VPWR mux_left_track_7.mux_l2_in_1_/X sky130_fd_sc_hd__mux2_1
XANTENNA_input60_A left_top_grid_pin_1_ VGND VGND VPWR VPWR sky130_fd_sc_hd__diode_2
Xmem_bottom_track_25.sky130_fd_sc_hd__dfxtp_1_0_ clkbuf_3_7__f_mem_bottom_track_1.prog_clk/X
+ hold41/X VGND VGND VPWR VPWR mux_bottom_track_25.mux_l1_in_1_/S sky130_fd_sc_hd__dfxtp_1
Xhold32 hold32/A VGND VGND VPWR VPWR hold32/X sky130_fd_sc_hd__clkdlybuf4s25_1
Xhold10 hold10/A VGND VGND VPWR VPWR hold10/X sky130_fd_sc_hd__clkdlybuf4s25_1
Xhold54 hold54/A VGND VGND VPWR VPWR hold54/X sky130_fd_sc_hd__clkdlybuf4s25_1
Xhold43 hold43/A VGND VGND VPWR VPWR hold43/X sky130_fd_sc_hd__clkdlybuf4s25_1
Xhold21 hold21/A VGND VGND VPWR VPWR hold21/X sky130_fd_sc_hd__clkdlybuf4s25_1
XFILLER_28_141 VGND VPWR VPWR VGND sky130_ef_sc_hd__decap_12
XFILLER_29_54 VGND VGND VPWR VPWR sky130_fd_sc_hd__fill_2
XFILLER_29_76 VGND VGND VPWR VPWR sky130_fd_sc_hd__decap_3
Xmem_left_track_35.sky130_fd_sc_hd__dfxtp_1_0_ clkbuf_3_3__f_mem_bottom_track_1.prog_clk/X
+ hold31/X VGND VGND VPWR VPWR hold28/A sky130_fd_sc_hd__dfxtp_1
Xmux_bottom_track_17.mux_l2_in_0__131 VGND VGND VPWR VPWR mux_bottom_track_17.mux_l2_in_0_/A0
+ mux_bottom_track_17.mux_l2_in_0__131/LO sky130_fd_sc_hd__conb_1
XFILLER_25_122 VGND VPWR VPWR VGND sky130_ef_sc_hd__decap_12
XFILLER_25_166 VGND VGND VPWR VPWR sky130_fd_sc_hd__fill_2
XFILLER_31_33 VGND VGND VPWR VPWR sky130_fd_sc_hd__fill_2
XFILLER_0_221 VGND VGND VPWR VPWR sky130_fd_sc_hd__fill_2
Xoutput99 _097_/X VGND VGND VPWR VPWR chany_bottom_out[6] sky130_fd_sc_hd__buf_2
Xoutput88 _105_/X VGND VGND VPWR VPWR chany_bottom_out[14] sky130_fd_sc_hd__buf_2
Xoutput77 _075_/X VGND VGND VPWR VPWR chanx_left_out[4] sky130_fd_sc_hd__buf_2
Xoutput66 _083_/X VGND VGND VPWR VPWR chanx_left_out[12] sky130_fd_sc_hd__buf_2
XANTENNA_input23_A chanx_left_in[1] VGND VGND VPWR VPWR sky130_fd_sc_hd__diode_2
XFILLER_16_133 VGND VGND VPWR VPWR sky130_fd_sc_hd__fill_2
XFILLER_31_125 VGND VPWR VPWR VGND sky130_ef_sc_hd__decap_12
XFILLER_31_169 VGND VPWR VPWR VGND sky130_ef_sc_hd__decap_12
XTAP_103 VGND VPWR sky130_fd_sc_hd__tapvpwrvgnd_1
XTAP_114 VGND VPWR sky130_fd_sc_hd__tapvpwrvgnd_1
XTAP_125 VGND VPWR sky130_fd_sc_hd__tapvpwrvgnd_1
XTAP_136 VGND VPWR sky130_fd_sc_hd__tapvpwrvgnd_1
XTAP_147 VGND VPWR sky130_fd_sc_hd__tapvpwrvgnd_1
XTAP_158 VGND VPWR sky130_fd_sc_hd__tapvpwrvgnd_1
XTAP_169 VGND VPWR sky130_fd_sc_hd__tapvpwrvgnd_1
Xmem_bottom_track_3.sky130_fd_sc_hd__dfxtp_1_1_ clkbuf_3_0__f_mem_bottom_track_1.prog_clk/X
+ mux_bottom_track_3.mux_l1_in_1_/S VGND VGND VPWR VPWR mux_bottom_track_3.mux_l2_in_1_/S
+ sky130_fd_sc_hd__dfxtp_1
XFILLER_9_129 VGND VGND VPWR VPWR sky130_fd_sc_hd__decap_4
XFILLER_8_162 VGND VGND VPWR VPWR sky130_fd_sc_hd__fill_2
XFILLER_12_180 VGND VGND VPWR VPWR sky130_fd_sc_hd__fill_2
XFILLER_27_217 VGND VGND VPWR VPWR sky130_fd_sc_hd__decap_6
XFILLER_33_209 VGND VPWR VPWR VGND sky130_ef_sc_hd__decap_12
XFILLER_18_217 VGND VGND VPWR VPWR sky130_fd_sc_hd__decap_6
Xmux_left_track_15.mux_l2_in_0_ mux_left_track_15.mux_l2_in_0_/A0 mux_left_track_15.mux_l1_in_0_/X
+ hold46/A VGND VGND VPWR VPWR mux_left_track_15.mux_l2_in_0_/X sky130_fd_sc_hd__mux2_1
XFILLER_5_198 VGND VGND VPWR VPWR sky130_fd_sc_hd__fill_2
XFILLER_5_165 VGND VGND VPWR VPWR sky130_fd_sc_hd__decap_3
XFILLER_5_154 VGND VGND VPWR VPWR sky130_fd_sc_hd__fill_2
XFILLER_24_209 VGND VPWR VPWR VGND sky130_ef_sc_hd__decap_12
Xprog_clk_0_FTB00 prog_clk_0_S_in VGND VGND VPWR VPWR prog_clk_0_FTB00/X sky130_fd_sc_hd__buf_8
XFILLER_18_56 VGND VGND VPWR VPWR sky130_fd_sc_hd__decap_4
XFILLER_7_216 VGND VGND VPWR VPWR sky130_fd_sc_hd__fill_2
Xmux_left_track_7.mux_l2_in_0_ mux_left_track_7.mux_l1_in_1_/X mux_left_track_7.mux_l1_in_0_/X
+ mux_left_track_7.mux_l2_in_1_/S VGND VGND VPWR VPWR mux_left_track_7.mux_l2_in_0_/X
+ sky130_fd_sc_hd__mux2_1
XANTENNA_input53_A left_bottom_grid_pin_35_ VGND VGND VPWR VPWR sky130_fd_sc_hd__diode_2
Xmux_bottom_track_21.mux_l2_in_0__133 VGND VGND VPWR VPWR mux_bottom_track_21.mux_l2_in_0_/A0
+ mux_bottom_track_21.mux_l2_in_0__133/LO sky130_fd_sc_hd__conb_1
XFILLER_20_13 VGND VGND VPWR VPWR sky130_fd_sc_hd__decap_4
Xhold22 hold22/A VGND VGND VPWR VPWR hold22/X sky130_fd_sc_hd__clkdlybuf4s25_1
Xhold11 hold11/A VGND VGND VPWR VPWR hold11/X sky130_fd_sc_hd__clkdlybuf4s25_1
Xhold44 hold44/A VGND VGND VPWR VPWR hold44/X sky130_fd_sc_hd__clkdlybuf4s25_1
Xhold33 hold33/A VGND VGND VPWR VPWR hold33/X sky130_fd_sc_hd__clkdlybuf4s25_1
Xhold55 hold55/A VGND VGND VPWR VPWR hold55/X sky130_fd_sc_hd__clkdlybuf4s25_1
XFILLER_28_153 VGND VPWR VPWR VGND sky130_ef_sc_hd__decap_12
XFILLER_28_197 VGND VPWR VPWR VGND sky130_ef_sc_hd__decap_12
XFILLER_29_66 VGND VGND VPWR VPWR sky130_fd_sc_hd__fill_2
XFILLER_29_88 VGND VGND VPWR VPWR sky130_fd_sc_hd__fill_1
XFILLER_6_26 VGND VGND VPWR VPWR sky130_fd_sc_hd__fill_2
XFILLER_6_15 VGND VGND VPWR VPWR sky130_fd_sc_hd__fill_2
XFILLER_19_131 VGND VPWR VPWR VGND sky130_ef_sc_hd__decap_12
Xmux_left_track_7.mux_l1_in_1_ input56/X input54/X mux_left_track_7.mux_l1_in_1_/S
+ VGND VGND VPWR VPWR mux_left_track_7.mux_l1_in_1_/X sky130_fd_sc_hd__mux2_1
XFILLER_25_134 VGND VPWR VPWR VGND sky130_ef_sc_hd__decap_12
Xoutput89 _106_/X VGND VGND VPWR VPWR chany_bottom_out[15] sky130_fd_sc_hd__buf_2
Xoutput78 _076_/X VGND VGND VPWR VPWR chanx_left_out[5] sky130_fd_sc_hd__buf_2
Xoutput67 _084_/X VGND VGND VPWR VPWR chanx_left_out[13] sky130_fd_sc_hd__buf_2
XANTENNA_input16_A chanx_left_in[13] VGND VGND VPWR VPWR sky130_fd_sc_hd__diode_2
XFILLER_31_137 VGND VPWR VPWR VGND sky130_ef_sc_hd__decap_12
XTAP_104 VGND VPWR sky130_fd_sc_hd__tapvpwrvgnd_1
XTAP_115 VGND VPWR sky130_fd_sc_hd__tapvpwrvgnd_1
XTAP_126 VGND VPWR sky130_fd_sc_hd__tapvpwrvgnd_1
XTAP_137 VGND VPWR sky130_fd_sc_hd__tapvpwrvgnd_1
XTAP_148 VGND VPWR sky130_fd_sc_hd__tapvpwrvgnd_1
XTAP_159 VGND VPWR sky130_fd_sc_hd__tapvpwrvgnd_1
XFILLER_22_137 VGND VGND VPWR VPWR sky130_fd_sc_hd__decap_3
Xmem_bottom_track_3.sky130_fd_sc_hd__dfxtp_1_0_ clkbuf_3_0__f_mem_bottom_track_1.prog_clk/X
+ hold9/X VGND VGND VPWR VPWR mux_bottom_track_3.mux_l1_in_1_/S sky130_fd_sc_hd__dfxtp_1
XANTENNA_input8_A bottom_left_grid_pin_48_ VGND VGND VPWR VPWR sky130_fd_sc_hd__diode_2
XANTENNA_mux_left_track_1.mux_l1_in_1__A0 input55/X VGND VGND VPWR VPWR sky130_fd_sc_hd__diode_2
XFILLER_26_23 VGND VGND VPWR VPWR sky130_fd_sc_hd__decap_4
XFILLER_21_181 VGND VPWR VPWR VGND sky130_ef_sc_hd__decap_12
XFILLER_5_111 VGND VGND VPWR VPWR sky130_fd_sc_hd__fill_1
XFILLER_5_188 VGND VGND VPWR VPWR sky130_fd_sc_hd__fill_2
XFILLER_32_221 VGND VGND VPWR VPWR sky130_fd_sc_hd__fill_2
XFILLER_4_81 VGND VGND VPWR VPWR sky130_fd_sc_hd__decap_3
XFILLER_4_70 VGND VGND VPWR VPWR sky130_fd_sc_hd__fill_2
XFILLER_23_79 VGND VGND VPWR VPWR sky130_fd_sc_hd__decap_4
Xmem_bottom_track_9.sky130_fd_sc_hd__dfxtp_1_1_ clkbuf_3_5__f_mem_bottom_track_1.prog_clk/X
+ hold10/X VGND VGND VPWR VPWR hold16/A sky130_fd_sc_hd__dfxtp_1
XFILLER_0_39 VGND VGND VPWR VPWR sky130_fd_sc_hd__fill_2
XFILLER_14_221 VGND VGND VPWR VPWR sky130_fd_sc_hd__fill_2
XFILLER_1_191 VGND VGND VPWR VPWR sky130_fd_sc_hd__fill_2
Xmux_left_track_15.mux_l1_in_0_ input54/X input48/X hold54/A VGND VGND VPWR VPWR mux_left_track_15.mux_l1_in_0_/X
+ sky130_fd_sc_hd__mux2_1
X_110_ _110_/A VGND VGND VPWR VPWR _110_/X sky130_fd_sc_hd__clkbuf_1
XANTENNA_input46_A chany_bottom_in[4] VGND VGND VPWR VPWR sky130_fd_sc_hd__diode_2
Xmux_left_track_27.mux_l2_in_0_ mux_left_track_27.mux_l2_in_0_/A0 mux_left_track_27.mux_l1_in_0_/X
+ hold3/A VGND VGND VPWR VPWR mux_left_track_27.mux_l2_in_0_/X sky130_fd_sc_hd__mux2_1
Xhold12 hold12/A VGND VGND VPWR VPWR hold12/X sky130_fd_sc_hd__clkdlybuf4s25_1
Xhold34 hold34/A VGND VGND VPWR VPWR hold34/X sky130_fd_sc_hd__clkdlybuf4s25_1
Xhold23 hold23/A VGND VGND VPWR VPWR hold23/X sky130_fd_sc_hd__clkdlybuf4s25_1
Xhold45 hold45/A VGND VGND VPWR VPWR hold45/X sky130_fd_sc_hd__clkdlybuf4s25_1
Xhold56 hold56/A VGND VGND VPWR VPWR hold56/X sky130_fd_sc_hd__clkdlybuf4s25_1
XFILLER_29_23 VGND VGND VPWR VPWR sky130_fd_sc_hd__fill_2
XFILLER_28_121 VGND VGND VPWR VPWR sky130_fd_sc_hd__fill_2
XFILLER_28_165 VGND VPWR VPWR VGND sky130_ef_sc_hd__decap_12
XFILLER_6_38 VGND VGND VPWR VPWR sky130_fd_sc_hd__fill_2
XFILLER_3_220 VGND VGND VPWR VPWR sky130_fd_sc_hd__decap_3
XFILLER_19_143 VGND VPWR VPWR VGND sky130_ef_sc_hd__decap_12
Xmux_bottom_track_11.sky130_fd_sc_hd__buf_4_0_ mux_bottom_track_11.mux_l2_in_0_/X
+ VGND VGND VPWR VPWR _096_/A sky130_fd_sc_hd__clkbuf_1
Xmux_left_track_7.mux_l1_in_0_ input52/X input44/X mux_left_track_7.mux_l1_in_1_/S
+ VGND VGND VPWR VPWR mux_left_track_7.mux_l1_in_0_/X sky130_fd_sc_hd__mux2_1
XFILLER_25_146 VGND VPWR VPWR VGND sky130_ef_sc_hd__decap_12
XFILLER_31_13 VGND VGND VPWR VPWR sky130_fd_sc_hd__decap_3
XFILLER_0_201 VGND VGND VPWR VPWR sky130_fd_sc_hd__fill_2
XFILLER_31_57 VGND VPWR VPWR VGND sky130_ef_sc_hd__decap_12
Xoutput79 _077_/X VGND VGND VPWR VPWR chanx_left_out[6] sky130_fd_sc_hd__buf_2
Xoutput68 _085_/X VGND VGND VPWR VPWR chanx_left_out[14] sky130_fd_sc_hd__buf_2
XFILLER_31_105 VGND VGND VPWR VPWR sky130_fd_sc_hd__decap_6
XFILLER_31_149 VGND VPWR VPWR VGND sky130_ef_sc_hd__decap_12
XTAP_105 VGND VPWR sky130_fd_sc_hd__tapvpwrvgnd_1
XTAP_116 VGND VPWR sky130_fd_sc_hd__tapvpwrvgnd_1
XTAP_127 VGND VPWR sky130_fd_sc_hd__tapvpwrvgnd_1
XTAP_138 VGND VPWR sky130_fd_sc_hd__tapvpwrvgnd_1
XTAP_149 VGND VPWR sky130_fd_sc_hd__tapvpwrvgnd_1
XFILLER_15_190 VGND VPWR VPWR VGND sky130_ef_sc_hd__decap_12
XFILLER_26_13 VGND VGND VPWR VPWR sky130_fd_sc_hd__fill_2
XFILLER_21_193 VGND VPWR VPWR VGND sky130_ef_sc_hd__decap_12
XFILLER_12_171 VGND VGND VPWR VPWR sky130_fd_sc_hd__fill_2
Xmem_bottom_track_11.sky130_fd_sc_hd__dfxtp_1_1_ clkbuf_3_6__f_mem_bottom_track_1.prog_clk/X
+ hold29/X VGND VGND VPWR VPWR hold8/A sky130_fd_sc_hd__dfxtp_1
XFILLER_10_108 VGND VGND VPWR VPWR sky130_fd_sc_hd__fill_2
XFILLER_12_26 VGND VGND VPWR VPWR sky130_fd_sc_hd__fill_2
XFILLER_5_178 VGND VGND VPWR VPWR sky130_fd_sc_hd__fill_2
Xmem_left_track_21.sky130_fd_sc_hd__dfxtp_1_1_ clkbuf_3_2__f_mem_bottom_track_1.prog_clk/X
+ hold39/X VGND VGND VPWR VPWR hold36/A sky130_fd_sc_hd__dfxtp_1
XFILLER_23_36 VGND VGND VPWR VPWR sky130_fd_sc_hd__fill_2
Xmem_bottom_track_9.sky130_fd_sc_hd__dfxtp_1_0_ clkbuf_3_4__f_mem_bottom_track_1.prog_clk/X
+ hold20/X VGND VGND VPWR VPWR hold10/A sky130_fd_sc_hd__dfxtp_1
XFILLER_9_27 VGND VGND VPWR VPWR sky130_fd_sc_hd__fill_2
Xmux_left_track_27.mux_l2_in_0__116 VGND VGND VPWR VPWR mux_left_track_27.mux_l2_in_0_/A0
+ mux_left_track_27.mux_l2_in_0__116/LO sky130_fd_sc_hd__conb_1
XFILLER_18_25 VGND VGND VPWR VPWR sky130_fd_sc_hd__decap_3
XANTENNA_input39_A chany_bottom_in[16] VGND VGND VPWR VPWR sky130_fd_sc_hd__diode_2
XFILLER_1_83 VGND VGND VPWR VPWR sky130_fd_sc_hd__fill_2
XFILLER_20_26 VGND VGND VPWR VPWR sky130_fd_sc_hd__fill_2
Xhold57 hold57/A VGND VGND VPWR VPWR hold57/X sky130_fd_sc_hd__clkdlybuf4s25_1
Xhold13 hold13/A VGND VGND VPWR VPWR hold13/X sky130_fd_sc_hd__clkdlybuf4s25_1
Xhold24 hold24/A VGND VGND VPWR VPWR hold24/X sky130_fd_sc_hd__clkdlybuf4s25_1
Xhold46 hold46/A VGND VGND VPWR VPWR hold46/X sky130_fd_sc_hd__clkdlybuf4s25_1
Xhold35 hold35/A VGND VGND VPWR VPWR hold35/X sky130_fd_sc_hd__clkdlybuf4s25_1
XFILLER_29_13 VGND VGND VPWR VPWR sky130_fd_sc_hd__fill_2
XFILLER_28_177 VGND VPWR VPWR VGND sky130_ef_sc_hd__decap_12
XFILLER_10_81 VGND VGND VPWR VPWR sky130_fd_sc_hd__decap_3
XFILLER_19_155 VGND VPWR VPWR VGND sky130_ef_sc_hd__decap_12
Xmux_bottom_track_9.mux_l2_in_0__106 VGND VGND VPWR VPWR mux_bottom_track_9.mux_l2_in_0_/A0
+ mux_bottom_track_9.mux_l2_in_0__106/LO sky130_fd_sc_hd__conb_1
XFILLER_15_48 VGND VGND VPWR VPWR sky130_fd_sc_hd__fill_2
XFILLER_25_158 VGND VGND VPWR VPWR sky130_fd_sc_hd__decap_8
XFILLER_25_169 VGND VPWR VPWR VGND sky130_ef_sc_hd__decap_12
Xmux_left_track_27.mux_l1_in_0_ input52/X input35/X hold60/A VGND VGND VPWR VPWR mux_left_track_27.mux_l1_in_0_/X
+ sky130_fd_sc_hd__mux2_1
XFILLER_15_59 VGND VGND VPWR VPWR sky130_fd_sc_hd__fill_2
XFILLER_31_69 VGND VPWR VPWR VGND sky130_ef_sc_hd__decap_12
Xoutput69 _086_/X VGND VGND VPWR VPWR chanx_left_out[15] sky130_fd_sc_hd__buf_2
XFILLER_16_147 VGND VGND VPWR VPWR sky130_fd_sc_hd__fill_2
Xmux_left_track_39.mux_l2_in_0_ mux_left_track_39.mux_l2_in_0_/A0 mux_left_track_39.mux_l1_in_0_/X
+ output62/A VGND VGND VPWR VPWR mux_left_track_39.mux_l2_in_0_/X sky130_fd_sc_hd__mux2_1
XTAP_106 VGND VPWR sky130_fd_sc_hd__tapvpwrvgnd_1
XTAP_117 VGND VPWR sky130_fd_sc_hd__tapvpwrvgnd_1
XTAP_128 VGND VPWR sky130_fd_sc_hd__tapvpwrvgnd_1
XTAP_139 VGND VPWR sky130_fd_sc_hd__tapvpwrvgnd_1
XPHY_0 VGND VGND VPWR VPWR sky130_fd_sc_hd__decap_3
XFILLER_22_117 VGND VPWR VPWR VGND sky130_ef_sc_hd__decap_12
XFILLER_13_139 VGND VGND VPWR VPWR sky130_fd_sc_hd__decap_3
XFILLER_21_161 VGND VGND VPWR VPWR sky130_fd_sc_hd__decap_6
Xmux_bottom_track_13.mux_l2_in_0_ mux_bottom_track_13.mux_l2_in_0_/A0 mux_bottom_track_13.mux_l1_in_0_/X
+ hold34/A VGND VGND VPWR VPWR mux_bottom_track_13.mux_l2_in_0_/X sky130_fd_sc_hd__mux2_1
XANTENNA_input21_A chanx_left_in[18] VGND VGND VPWR VPWR sky130_fd_sc_hd__diode_2
XFILLER_16_80 VGND VGND VPWR VPWR sky130_fd_sc_hd__decap_4
Xmem_bottom_track_11.sky130_fd_sc_hd__dfxtp_1_0_ clkbuf_3_6__f_mem_bottom_track_1.prog_clk/X
+ hold16/X VGND VGND VPWR VPWR hold29/A sky130_fd_sc_hd__dfxtp_1
Xmem_left_track_21.sky130_fd_sc_hd__dfxtp_1_0_ clkbuf_3_2__f_mem_bottom_track_1.prog_clk/X
+ hold51/X VGND VGND VPWR VPWR hold39/A sky130_fd_sc_hd__dfxtp_1
XFILLER_4_190 VGND VGND VPWR VPWR sky130_fd_sc_hd__fill_2
Xmux_bottom_track_27.sky130_fd_sc_hd__buf_4_0_ mux_bottom_track_27.mux_l2_in_0_/X
+ VGND VGND VPWR VPWR _104_/A sky130_fd_sc_hd__clkbuf_1
XFILLER_23_26 VGND VGND VPWR VPWR sky130_fd_sc_hd__fill_2
XFILLER_2_138 VGND VGND VPWR VPWR sky130_fd_sc_hd__fill_2
XANTENNA_mux_left_track_5.mux_l1_in_0__A0 input60/X VGND VGND VPWR VPWR sky130_fd_sc_hd__diode_2
Xmem_bottom_track_17.sky130_fd_sc_hd__dfxtp_1_1_ clkbuf_3_5__f_mem_bottom_track_1.prog_clk/X
+ hold13/X VGND VGND VPWR VPWR hold27/A sky130_fd_sc_hd__dfxtp_1
XFILLER_7_208 VGND VGND VPWR VPWR sky130_fd_sc_hd__decap_4
X_099_ _099_/A VGND VGND VPWR VPWR _099_/X sky130_fd_sc_hd__clkbuf_1
Xmem_left_track_27.sky130_fd_sc_hd__dfxtp_1_1_ clkbuf_3_1__f_mem_bottom_track_1.prog_clk/X
+ hold60/X VGND VGND VPWR VPWR hold3/A sky130_fd_sc_hd__dfxtp_1
Xhold25 hold25/A VGND VGND VPWR VPWR hold25/X sky130_fd_sc_hd__clkdlybuf4s25_1
Xhold14 hold14/A VGND VGND VPWR VPWR hold14/X sky130_fd_sc_hd__clkdlybuf4s25_1
Xmux_bottom_track_5.mux_l2_in_1__104 VGND VGND VPWR VPWR mux_bottom_track_5.mux_l2_in_1_/A0
+ mux_bottom_track_5.mux_l2_in_1__104/LO sky130_fd_sc_hd__conb_1
Xhold58 hold58/A VGND VGND VPWR VPWR hold58/X sky130_fd_sc_hd__clkdlybuf4s25_1
Xhold47 hold47/A VGND VGND VPWR VPWR hold47/X sky130_fd_sc_hd__clkdlybuf4s25_1
Xhold36 hold36/A VGND VGND VPWR VPWR hold36/X sky130_fd_sc_hd__clkdlybuf4s25_1
XFILLER_28_189 VGND VGND VPWR VPWR sky130_fd_sc_hd__decap_6
XANTENNA_input51_A chany_bottom_in[9] VGND VGND VPWR VPWR sky130_fd_sc_hd__diode_2
XFILLER_19_167 VGND VGND VPWR VPWR sky130_fd_sc_hd__fill_1
XFILLER_33_181 VGND VPWR VPWR VGND sky130_ef_sc_hd__decap_12
XFILLER_15_27 VGND VGND VPWR VPWR sky130_fd_sc_hd__decap_4
XFILLER_25_104 VGND VGND VPWR VPWR sky130_fd_sc_hd__decap_4
XFILLER_16_137 VGND VGND VPWR VPWR sky130_fd_sc_hd__decap_3
XFILLER_21_92 VGND VGND VPWR VPWR sky130_fd_sc_hd__fill_2
XTAP_107 VGND VPWR sky130_fd_sc_hd__tapvpwrvgnd_1
XTAP_118 VGND VPWR sky130_fd_sc_hd__tapvpwrvgnd_1
XTAP_129 VGND VPWR sky130_fd_sc_hd__tapvpwrvgnd_1
XPHY_1 VGND VGND VPWR VPWR sky130_fd_sc_hd__decap_3
XFILLER_22_107 VGND VGND VPWR VPWR sky130_fd_sc_hd__fill_2
XFILLER_22_129 VGND VGND VPWR VPWR sky130_fd_sc_hd__decap_8
XFILLER_15_181 VGND VGND VPWR VPWR sky130_fd_sc_hd__decap_6
XANTENNA_mux_left_track_23.mux_l1_in_0__A0 input58/X VGND VGND VPWR VPWR sky130_fd_sc_hd__diode_2
XFILLER_30_195 VGND VGND VPWR VPWR sky130_fd_sc_hd__fill_1
XFILLER_13_129 VGND VGND VPWR VPWR sky130_fd_sc_hd__fill_2
XANTENNA_input14_A chanx_left_in[11] VGND VGND VPWR VPWR sky130_fd_sc_hd__diode_2
XFILLER_12_184 VGND VPWR VPWR VGND sky130_ef_sc_hd__decap_12
XANTENNA_input6_A bottom_left_grid_pin_46_ VGND VGND VPWR VPWR sky130_fd_sc_hd__diode_2
Xmux_left_track_39.mux_l1_in_0_ input58/X input41/X hold35/A VGND VGND VPWR VPWR mux_left_track_39.mux_l1_in_0_/X
+ sky130_fd_sc_hd__mux2_1
XFILLER_26_221 VGND VGND VPWR VPWR sky130_fd_sc_hd__fill_2
Xmux_left_track_31.mux_l2_in_0__119 VGND VGND VPWR VPWR mux_left_track_31.mux_l2_in_0_/A0
+ mux_left_track_31.mux_l2_in_0__119/LO sky130_fd_sc_hd__conb_1
XFILLER_27_91 VGND VGND VPWR VPWR sky130_fd_sc_hd__fill_2
Xmux_bottom_track_13.mux_l1_in_0_ input29/X input3/X hold19/A VGND VGND VPWR VPWR
+ mux_bottom_track_13.mux_l1_in_0_/X sky130_fd_sc_hd__mux2_1
XFILLER_23_16 VGND VGND VPWR VPWR sky130_fd_sc_hd__fill_2
Xmux_bottom_track_25.mux_l2_in_0_ mux_bottom_track_25.mux_l1_in_1_/X mux_bottom_track_25.mux_l1_in_0_/X